@<TRIPOS>MOLECULE
IRMOF-1
 392 4 0 0 0
SMALL
GASTEIGER

@<TRIPOS>ATOM
      1 O           6.4580    6.4580    6.4580 O.3     1  HOH1        0.0000
      2 O           7.2820    5.6340    3.4615 O.2     2  UNL2       -0.2835
      3 C           6.4580    6.4580    2.8751 C.2     2  UNL2        0.2294
      4 C           6.4580    6.4580    1.3898 C.2     2  UNL2        0.0146
      5 C           7.3079    5.6081    0.6949 C.3     2  UNL2        0.0033
      6 H           7.8762    5.0398    1.1573 H       2  UNL2        0.0362
      7 O          19.3740   19.3740    6.4580 O.3     3  HOH3        0.0000
      8 O          19.3740    6.4580   19.3740 O.3     4  HOH4        0.0000
      9 O           6.4580   19.3740   19.3740 O.3     5  HOH5        0.0000
     10 O           6.4580    6.4580   19.3740 O.3     6  HOH6        0.0000
     11 O          19.3740   19.3740   19.3740 O.3     7  HOH7        0.0000
     12 O           6.4580   19.3740    6.4580 O.3     8  HOH8        0.0000
     13 O          19.3740    6.4580    6.4580 O.3     9  HOH9        0.0000
     14 O          18.5500   20.1980    3.4615 O.3    10  HOH10       0.0000
     15 O          18.5500    5.6340   22.3705 O.3    11  HOH11       0.0000
     16 O           7.2820   20.1980   22.3705 O.3    12  HOH12       0.0000
     17 O           3.4615    7.2820    5.6340 O.3    13  HOH13       0.0000
     18 O           3.4615   18.5500   20.1980 O.3    14  HOH14       0.0000
     19 O          22.3705   18.5500    5.6340 O.3    15  HOH15       0.0000
     20 O          22.3705    7.2820   20.1980 O.3    16  HOH16       0.0000
     21 O           5.6340    3.4615    7.2820 O.3    17  HOH17       0.0000
     22 O          20.1980    3.4615   18.5500 O.3    18  HOH18       0.0000
     23 O           5.6340   22.3705   18.5500 O.3    19  HOH19       0.0000
     24 O          20.1980   22.3705    7.2820 O.3    20  HOH20       0.0000
     25 O           5.6340    7.2820   22.3705 O.3    21  HOH21       0.0000
     26 O          20.1980   18.5500   22.3705 O.3    22  HOH22       0.0000
     27 O           5.6340   18.5500    3.4615 O.3    23  HOH23       0.0000
     28 O          20.1980    7.2820    3.4615 O.3    24  HOH24       0.0000
     29 O           7.2820    3.4615   20.1980 O.3    25  HOH25       0.0000
     30 O          18.5500    3.4615    5.6340 O.3    26  HOH26       0.0000
     31 O          18.5500   22.3705   20.1980 O.3    27  HOH27       0.0000
     32 O           7.2820   22.3705    5.6340 O.3    28  HOH28       0.0000
     33 O           3.4615    5.6340   18.5500 O.3    29  HOH29       0.0000
     34 O           3.4615   20.1980    7.2820 O.3    30  HOH30       0.0000
     35 O          22.3705    5.6340    7.2820 O.3    31  HOH31       0.0000
     36 O          22.3705   20.1980   18.5500 O.3    32  HOH32       0.0000
     37 O          18.5500   20.1980   22.3705 O.3    33  HOH33       0.0000
     38 O           7.2820    5.6340   22.3705 O.3    34  HOH34       0.0000
     39 O           7.2820   20.1980    3.4615 O.3    35  HOH35       0.0000
     40 O          18.5500    5.6340    3.4615 O.3    36  HOH36       0.0000
     41 O          22.3705   18.5500   20.1980 O.3    37  HOH37       0.0000
     42 O          22.3705    7.2820    5.6340 O.3    38  HOH38       0.0000
     43 O           3.4615    7.2820   20.1980 O.3    39  HOH39       0.0000
     44 O           3.4615   18.5500    5.6340 O.3    40  HOH40       0.0000
     45 O          20.1980   22.3705   18.5500 O.3    41  HOH41       0.0000
     46 O           5.6340   22.3705    7.2820 O.3    42  HOH42       0.0000
     47 O          20.1980    3.4615    7.2820 O.3    43  HOH43       0.0000
     48 O           5.6340    3.4615   18.5500 O.3    44  HOH44       0.0000
     49 O          20.1980   18.5500    3.4615 O.3    45  HOH45       0.0000
     50 O           5.6340    7.2820    3.4615 O.3    46  HOH46       0.0000
     51 O          20.1980    7.2820   22.3705 O.3    47  HOH47       0.0000
     52 O           5.6340   18.5500   22.3705 O.3    48  HOH48       0.0000
     53 O          18.5500   22.3705    5.6340 O.3    49  HOH49       0.0000
     54 O           7.2820   22.3705   20.1980 O.3    50  HOH50       0.0000
     55 O           7.2820    3.4615    5.6340 O.3    51  HOH51       0.0000
     56 O          18.5500    3.4615   20.1980 O.3    52  HOH52       0.0000
     57 O          22.3705   20.1980    7.2820 O.3    53  HOH53       0.0000
     58 O          22.3705    5.6340   18.5500 O.3    54  HOH54       0.0000
     59 O           3.4615   20.1980   18.5500 O.3    55  HOH55       0.0000
     60 O           3.4615    5.6340    7.2820 O.3    56  HOH56       0.0000
     61 O           7.2820   18.5500   16.3775 O.3    57  HOH57       0.0000
     62 O          18.5500    7.2820   16.3775 O.3    58  HOH58       0.0000
     63 O          18.5500   18.5500    9.4545 O.3    59  HOH59       0.0000
     64 O           7.2820    7.2820    9.4545 O.3    60  HOH60       0.0000
     65 O           5.6340   16.3775   20.1980 O.3    61  HOH61       0.0000
     66 O          20.1980   16.3775    5.6340 O.3    62  HOH62       0.0000
     67 O           5.6340    9.4545    5.6340 O.3    63  HOH63       0.0000
     68 O          20.1980    9.4545   20.1980 O.3    64  HOH64       0.0000
     69 O           5.6340   20.1980    9.4545 O.3    65  HOH65       0.0000
     70 O          20.1980    5.6340    9.4545 O.3    66  HOH66       0.0000
     71 O           5.6340    5.6340   16.3775 O.3    67  HOH67       0.0000
     72 O          20.1980   20.1980   16.3775 O.3    68  HOH68       0.0000
     73 O           7.2820   16.3775    7.2820 O.3    69  HOH69       0.0000
     74 O          18.5500   16.3775   18.5500 O.3    70  HOH70       0.0000
     75 O          18.5500    9.4545    7.2820 O.3    71  HOH71       0.0000
     76 O           7.2820    9.4545   18.5500 O.3    72  HOH72       0.0000
     77 O          18.5500    7.2820    9.4545 O.3    73  HOH73       0.0000
     78 O           7.2820   18.5500    9.4545 O.3    74  HOH74       0.0000
     79 O           7.2820    7.2820   16.3775 O.3    75  HOH75       0.0000
     80 O          18.5500   18.5500   16.3775 O.3    76  HOH76       0.0000
     81 O          20.1980    9.4545    5.6340 O.3    77  HOH77       0.0000
     82 O           5.6340    9.4545   20.1980 O.3    78  HOH78       0.0000
     83 O          20.1980   16.3775   20.1980 O.3    79  HOH79       0.0000
     84 O           5.6340   16.3775    5.6340 O.3    80  HOH80       0.0000
     85 O          20.1980    5.6340   16.3775 O.3    81  HOH81       0.0000
     86 O           5.6340   20.1980   16.3775 O.3    82  HOH82       0.0000
     87 O          20.1980   20.1980    9.4545 O.3    83  HOH83       0.0000
     88 O           5.6340    5.6340    9.4545 O.3    84  HOH84       0.0000
     89 O          18.5500    9.4545   18.5500 O.3    85  HOH85       0.0000
     90 O           7.2820    9.4545    7.2820 O.3    86  HOH86       0.0000
     91 O           7.2820   16.3775   18.5500 O.3    87  HOH87       0.0000
     92 O          18.5500   16.3775    7.2820 O.3    88  HOH88       0.0000
     93 O          16.3775    7.2820   18.5500 O.3    89  HOH89       0.0000
     94 O          16.3775   18.5500    7.2820 O.3    90  HOH90       0.0000
     95 O           9.4545   18.5500   18.5500 O.3    91  HOH91       0.0000
     96 O           9.4545    7.2820    7.2820 O.3    92  HOH92       0.0000
     97 O          16.3775    5.6340    5.6340 O.3    93  HOH93       0.0000
     98 O          16.3775   20.1980   20.1980 O.3    94  HOH94       0.0000
     99 O           9.4545    5.6340   20.1980 O.3    95  HOH95       0.0000
    100 O           9.4545   20.1980    5.6340 O.3    96  HOH96       0.0000
    101 O           9.4545   18.5500    7.2820 O.3    97  HOH97       0.0000
    102 O           9.4545    7.2820   18.5500 O.3    98  HOH98       0.0000
    103 O          16.3775    7.2820    7.2820 O.3    99  HOH99       0.0000
    104 O          16.3775   18.5500   18.5500 O.3   100  HOH100      0.0000
    105 O           9.4545   20.1980   20.1980 O.3   101  HOH101      0.0000
    106 O           9.4545    5.6340    5.6340 O.3   102  HOH102      0.0000
    107 O          16.3775   20.1980    5.6340 O.3   103  HOH103      0.0000
    108 O          16.3775    5.6340   20.1980 O.3   104  HOH104      0.0000
    109 C          19.3740   19.3740    2.8751 C.3   105  UNL105      0.0000
    110 C          19.3740    6.4580   22.9569 C.3   106  UNL106      0.0000
    111 C           6.4580   19.3740   22.9569 C.3   107  UNL107      0.0000
    112 C           2.8751    6.4580    6.4580 C.3   108  UNL108      0.0000
    113 C           2.8751   19.3740   19.3740 C.3   109  UNL109      0.0000
    114 C          22.9569   19.3740    6.4580 C.3   110  UNL110      0.0000
    115 C          22.9569    6.4580   19.3740 C.3   111  UNL111      0.0000
    116 C           6.4580    2.8751    6.4580 C.3   112  UNL112      0.0000
    117 C          19.3740    2.8751   19.3740 C.3   113  UNL113      0.0000
    118 C           6.4580   22.9569   19.3740 C.3   114  UNL114      0.0000
    119 C          19.3740   22.9569    6.4580 C.3   115  UNL115      0.0000
    120 C           6.4580    6.4580   22.9569 C.3   116  UNL116      0.0000
    121 C          19.3740   19.3740   22.9569 C.3   117  UNL117      0.0000
    122 C           6.4580   19.3740    2.8751 C.3   118  UNL118      0.0000
    123 C          19.3740    6.4580    2.8751 C.3   119  UNL119      0.0000
    124 C           6.4580    2.8751   19.3740 C.3   120  UNL120      0.0000
    125 C          19.3740    2.8751    6.4580 C.3   121  UNL121      0.0000
    126 C          19.3740   22.9569   19.3740 C.3   122  UNL122      0.0000
    127 C           6.4580   22.9569    6.4580 C.3   123  UNL123      0.0000
    128 C           2.8751    6.4580   19.3740 C.3   124  UNL124      0.0000
    129 C           2.8751   19.3740    6.4580 C.3   125  UNL125      0.0000
    130 C          22.9569    6.4580    6.4580 C.3   126  UNL126      0.0000
    131 C          22.9569   19.3740   19.3740 C.3   127  UNL127      0.0000
    132 C           6.4580   19.3740   15.7911 C.3   128  UNL128      0.0000
    133 C          19.3740    6.4580   15.7911 C.3   129  UNL129      0.0000
    134 C          19.3740   19.3740   10.0409 C.3   130  UNL130      0.0000
    135 C           6.4580    6.4580   10.0409 C.3   131  UNL131      0.0000
    136 C           6.4580   15.7911   19.3740 C.3   132  UNL132      0.0000
    137 C          19.3740   15.7911    6.4580 C.3   133  UNL133      0.0000
    138 C           6.4580   10.0409    6.4580 C.3   134  UNL134      0.0000
    139 C          19.3740   10.0409   19.3740 C.3   135  UNL135      0.0000
    140 C           6.4580   19.3740   10.0409 C.3   136  UNL136      0.0000
    141 C          19.3740    6.4580   10.0409 C.3   137  UNL137      0.0000
    142 C           6.4580    6.4580   15.7911 C.3   138  UNL138      0.0000
    143 C          19.3740   19.3740   15.7911 C.3   139  UNL139      0.0000
    144 C           6.4580   15.7911    6.4580 C.3   140  UNL140      0.0000
    145 C          19.3740   15.7911   19.3740 C.3   141  UNL141      0.0000
    146 C          19.3740   10.0409    6.4580 C.3   142  UNL142      0.0000
    147 C           6.4580   10.0409   19.3740 C.3   143  UNL143      0.0000
    148 C          15.7911    6.4580   19.3740 C.3   144  UNL144      0.0000
    149 C          15.7911   19.3740    6.4580 C.3   145  UNL145      0.0000
    150 C          10.0409   19.3740   19.3740 C.3   146  UNL146      0.0000
    151 C          10.0409    6.4580    6.4580 C.3   147  UNL147      0.0000
    152 C          15.7911    6.4580    6.4580 C.3   148  UNL148      0.0000
    153 C          15.7911   19.3740   19.3740 C.3   149  UNL149      0.0000
    154 C          10.0409    6.4580   19.3740 C.3   150  UNL150      0.0000
    155 C          10.0409   19.3740    6.4580 C.3   151  UNL151      0.0000
    156 C          19.3740   19.3740    1.3898 C.3   152  UNL152      0.0000
    157 C          19.3740    6.4580   24.4422 C.3   153  UNL153      0.0000
    158 C           6.4580   19.3740   24.4422 C.3   154  UNL154      0.0000
    159 C           1.3898    6.4580    6.4580 C.3   155  UNL155      0.0000
    160 C           1.3898   19.3740   19.3740 C.3   156  UNL156      0.0000
    161 C          24.4422   19.3740    6.4580 C.3   157  UNL157      0.0000
    162 C          24.4422    6.4580   19.3740 C.3   158  UNL158      0.0000
    163 C           6.4580    1.3898    6.4580 C.3   159  UNL159      0.0000
    164 C          19.3740    1.3898   19.3740 C.3   160  UNL160      0.0000
    165 C           6.4580   24.4422   19.3740 C.3   161  UNL161      0.0000
    166 C          19.3740   24.4422    6.4580 C.3   162  UNL162      0.0000
    167 C           6.4580    6.4580   24.4422 C.3   163  UNL163      0.0000
    168 C          19.3740   19.3740   24.4422 C.3   164  UNL164      0.0000
    169 C           6.4580   19.3740    1.3898 C.3   165  UNL165      0.0000
    170 C          19.3740    6.4580    1.3898 C.3   166  UNL166      0.0000
    171 C           6.4580    1.3898   19.3740 C.3   167  UNL167      0.0000
    172 C          19.3740    1.3898    6.4580 C.3   168  UNL168      0.0000
    173 C          19.3740   24.4422   19.3740 C.3   169  UNL169      0.0000
    174 C           6.4580   24.4422    6.4580 C.3   170  UNL170      0.0000
    175 C           1.3898    6.4580   19.3740 C.3   171  UNL171      0.0000
    176 C           1.3898   19.3740    6.4580 C.3   172  UNL172      0.0000
    177 C          24.4422    6.4580    6.4580 C.3   173  UNL173      0.0000
    178 C          24.4422   19.3740   19.3740 C.3   174  UNL174      0.0000
    179 C           6.4580   19.3740   14.3058 C.3   175  UNL175      0.0000
    180 C          19.3740    6.4580   14.3058 C.3   176  UNL176      0.0000
    181 C          19.3740   19.3740   11.5262 C.3   177  UNL177      0.0000
    182 C           6.4580    6.4580   11.5262 C.3   178  UNL178      0.0000
    183 C           6.4580   14.3058   19.3740 C.3   179  UNL179      0.0000
    184 C          19.3740   14.3058    6.4580 C.3   180  UNL180      0.0000
    185 C           6.4580   11.5262    6.4580 C.3   181  UNL181      0.0000
    186 C          19.3740   11.5262   19.3740 C.3   182  UNL182      0.0000
    187 C           6.4580   19.3740   11.5262 C.3   183  UNL183      0.0000
    188 C          19.3740    6.4580   11.5262 C.3   184  UNL184      0.0000
    189 C           6.4580    6.4580   14.3058 C.3   185  UNL185      0.0000
    190 C          19.3740   19.3740   14.3058 C.3   186  UNL186      0.0000
    191 C           6.4580   14.3058    6.4580 C.3   187  UNL187      0.0000
    192 C          19.3740   14.3058   19.3740 C.3   188  UNL188      0.0000
    193 C          19.3740   11.5262    6.4580 C.3   189  UNL189      0.0000
    194 C           6.4580   11.5262   19.3740 C.3   190  UNL190      0.0000
    195 C          14.3058    6.4580   19.3740 C.3   191  UNL191      0.0000
    196 C          14.3058   19.3740    6.4580 C.3   192  UNL192      0.0000
    197 C          11.5262   19.3740   19.3740 C.3   193  UNL193      0.0000
    198 C          11.5262    6.4580    6.4580 C.3   194  UNL194      0.0000
    199 C          14.3058    6.4580    6.4580 C.3   195  UNL195      0.0000
    200 C          14.3058   19.3740   19.3740 C.3   196  UNL196      0.0000
    201 C          11.5262    6.4580   19.3740 C.3   197  UNL197      0.0000
    202 C          11.5262   19.3740    6.4580 C.3   198  UNL198      0.0000
    203 C          18.5241   20.2239    0.6949 C.3   199  UNL199      0.0000
    204 C          18.5241    5.6081   25.1371 C.3   200  UNL200      0.0000
    205 C           7.3079   20.2239   25.1371 C.3   201  UNL201      0.0000
    206 C           0.6949    7.3079    5.6081 C.3   202  UNL202      0.0000
    207 C           0.6949   18.5241   20.2239 C.3   203  UNL203      0.0000
    208 C          25.1371   18.5241    5.6081 C.3   204  UNL204      0.0000
    209 C          25.1371    7.3079   20.2239 C.3   205  UNL205      0.0000
    210 C           5.6081    0.6949    7.3079 C.3   206  UNL206      0.0000
    211 C          20.2239    0.6949   18.5241 C.3   207  UNL207      0.0000
    212 C           5.6081   25.1371   18.5241 C.3   208  UNL208      0.0000
    213 C          20.2239   25.1371    7.3079 C.3   209  UNL209      0.0000
    214 C           5.6081    7.3079   25.1371 C.3   210  UNL210      0.0000
    215 C          20.2239   18.5241   25.1371 C.3   211  UNL211      0.0000
    216 C           5.6081   18.5241    0.6949 C.3   212  UNL212      0.0000
    217 C          20.2239    7.3079    0.6949 C.3   213  UNL213      0.0000
    218 C           7.3079    0.6949   20.2239 C.3   214  UNL214      0.0000
    219 C          18.5241    0.6949    5.6081 C.3   215  UNL215      0.0000
    220 C          18.5241   25.1371   20.2239 C.3   216  UNL216      0.0000
    221 C           7.3079   25.1371    5.6081 C.3   217  UNL217      0.0000
    222 C           0.6949    5.6081   18.5241 C.3   218  UNL218      0.0000
    223 C           0.6949   20.2239    7.3079 C.3   219  UNL219      0.0000
    224 C          25.1371    5.6081    7.3079 C.3   220  UNL220      0.0000
    225 C          25.1371   20.2239   18.5241 C.3   221  UNL221      0.0000
    226 C          18.5241   20.2239   25.1371 C.3   222  UNL222      0.0000
    227 C           7.3079    5.6081   25.1371 C.3   223  UNL223      0.0000
    228 C           7.3079   20.2239    0.6949 C.3   224  UNL224      0.0000
    229 C          18.5241    5.6081    0.6949 C.3   225  UNL225      0.0000
    230 C          25.1371   18.5241   20.2239 C.3   226  UNL226      0.0000
    231 C          25.1371    7.3079    5.6081 C.3   227  UNL227      0.0000
    232 C           0.6949    7.3079   20.2239 C.3   228  UNL228      0.0000
    233 C           0.6949   18.5241    5.6081 C.3   229  UNL229      0.0000
    234 C          20.2239   25.1371   18.5241 C.3   230  UNL230      0.0000
    235 C           5.6081   25.1371    7.3079 C.3   231  UNL231      0.0000
    236 C          20.2239    0.6949    7.3079 C.3   232  UNL232      0.0000
    237 C           5.6081    0.6949   18.5241 C.3   233  UNL233      0.0000
    238 C          20.2239   18.5241    0.6949 C.3   234  UNL234      0.0000
    239 C           5.6081    7.3079    0.6949 C.3   235  UNL235      0.0000
    240 C          20.2239    7.3079   25.1371 C.3   236  UNL236      0.0000
    241 C           5.6081   18.5241   25.1371 C.3   237  UNL237      0.0000
    242 C          18.5241   25.1371    5.6081 C.3   238  UNL238      0.0000
    243 C           7.3079   25.1371   20.2239 C.3   239  UNL239      0.0000
    244 C           7.3079    0.6949    5.6081 C.3   240  UNL240      0.0000
    245 C          18.5241    0.6949   20.2239 C.3   241  UNL241      0.0000
    246 C          25.1371   20.2239    7.3079 C.3   242  UNL242      0.0000
    247 C          25.1371    5.6081   18.5241 C.3   243  UNL243      0.0000
    248 C           0.6949   20.2239   18.5241 C.3   244  UNL244      0.0000
    249 C           0.6949    5.6081    7.3079 C.3   245  UNL245      0.0000
    250 C           7.3079   18.5241   13.6109 C.3   246  UNL246      0.0000
    251 C          18.5241    7.3079   13.6109 C.3   247  UNL247      0.0000
    252 C          18.5241   18.5241   12.2211 C.3   248  UNL248      0.0000
    253 C           7.3079    7.3079   12.2211 C.3   249  UNL249      0.0000
    254 C           5.6081   13.6109   20.2239 C.3   250  UNL250      0.0000
    255 C          20.2239   13.6109    5.6081 C.3   251  UNL251      0.0000
    256 C           5.6081   12.2211    5.6081 C.3   252  UNL252      0.0000
    257 C          20.2239   12.2211   20.2239 C.3   253  UNL253      0.0000
    258 C           5.6081   20.2239   12.2211 C.3   254  UNL254      0.0000
    259 C          20.2239    5.6081   12.2211 C.3   255  UNL255      0.0000
    260 C           5.6081    5.6081   13.6109 C.3   256  UNL256      0.0000
    261 C          20.2239   20.2239   13.6109 C.3   257  UNL257      0.0000
    262 C           7.3079   13.6109    7.3079 C.3   258  UNL258      0.0000
    263 C          18.5241   13.6109   18.5241 C.3   259  UNL259      0.0000
    264 C          18.5241   12.2211    7.3079 C.3   260  UNL260      0.0000
    265 C           7.3079   12.2211   18.5241 C.3   261  UNL261      0.0000
    266 C          18.5241    7.3079   12.2211 C.3   262  UNL262      0.0000
    267 C           7.3079   18.5241   12.2211 C.3   263  UNL263      0.0000
    268 C           7.3079    7.3079   13.6109 C.3   264  UNL264      0.0000
    269 C          18.5241   18.5241   13.6109 C.3   265  UNL265      0.0000
    270 C          20.2239   12.2211    5.6081 C.3   266  UNL266      0.0000
    271 C           5.6081   12.2211   20.2239 C.3   267  UNL267      0.0000
    272 C          20.2239   13.6109   20.2239 C.3   268  UNL268      0.0000
    273 C           5.6081   13.6109    5.6081 C.3   269  UNL269      0.0000
    274 C          20.2239    5.6081   13.6109 C.3   270  UNL270      0.0000
    275 C           5.6081   20.2239   13.6109 C.3   271  UNL271      0.0000
    276 C          20.2239   20.2239   12.2211 C.3   272  UNL272      0.0000
    277 C           5.6081    5.6081   12.2211 C.3   273  UNL273      0.0000
    278 C          18.5241   12.2211   18.5241 C.3   274  UNL274      0.0000
    279 C           7.3079   12.2211    7.3079 C.3   275  UNL275      0.0000
    280 C           7.3079   13.6109   18.5241 C.3   276  UNL276      0.0000
    281 C          18.5241   13.6109    7.3079 C.3   277  UNL277      0.0000
    282 C          13.6109    7.3079   18.5241 C.3   278  UNL278      0.0000
    283 C          13.6109   18.5241    7.3079 C.3   279  UNL279      0.0000
    284 C          12.2211   18.5241   18.5241 C.3   280  UNL280      0.0000
    285 C          12.2211    7.3079    7.3079 C.3   281  UNL281      0.0000
    286 C          13.6109    5.6081    5.6081 C.3   282  UNL282      0.0000
    287 C          13.6109   20.2239   20.2239 C.3   283  UNL283      0.0000
    288 C          12.2211    5.6081   20.2239 C.3   284  UNL284      0.0000
    289 C          12.2211   20.2239    5.6081 C.3   285  UNL285      0.0000
    290 C          12.2211   18.5241    7.3079 C.3   286  UNL286      0.0000
    291 C          12.2211    7.3079   18.5241 C.3   287  UNL287      0.0000
    292 C          13.6109    7.3079    7.3079 C.3   288  UNL288      0.0000
    293 C          13.6109   18.5241   18.5241 C.3   289  UNL289      0.0000
    294 C          12.2211   20.2239   20.2239 C.3   290  UNL290      0.0000
    295 C          12.2211    5.6081    5.6081 C.3   291  UNL291      0.0000
    296 C          13.6109   20.2239    5.6081 C.3   292  UNL292      0.0000
    297 C          13.6109    5.6081   20.2239 C.3   293  UNL293      0.0000
    298 H          17.9558   20.7922    1.1573 H     294  UNK294      0.0000
    299 H          17.9558    5.0398   24.6747 H     295  UNK295      0.0000
    300 H           7.8762   20.7922   24.6747 H     296  UNK296      0.0000
    301 H           1.1573    7.8762    5.0398 H     297  UNK297      0.0000
    302 H           1.1573   17.9558   20.7922 H     298  UNK298      0.0000
    303 H          24.6747   17.9558    5.0398 H     299  UNK299      0.0000
    304 H          24.6747    7.8762   20.7922 H     300  UNK300      0.0000
    305 H           5.0398    1.1573    7.8762 H     301  UNK301      0.0000
    306 H          20.7922    1.1573   17.9558 H     302  UNK302      0.0000
    307 H           5.0398   24.6747   17.9558 H     303  UNK303      0.0000
    308 H          20.7922   24.6747    7.8762 H     304  UNK304      0.0000
    309 H           5.0398    7.8762   24.6747 H     305  UNK305      0.0000
    310 H          20.7922   17.9558   24.6747 H     306  UNK306      0.0000
    311 H           5.0398   17.9558    1.1573 H     307  UNK307      0.0000
    312 H          20.7922    7.8762    1.1573 H     308  UNK308      0.0000
    313 H           7.8762    1.1573   20.7922 H     309  UNK309      0.0000
    314 H          17.9558    1.1573    5.0398 H     310  UNK310      0.0000
    315 H          17.9558   24.6747   20.7922 H     311  UNK311      0.0000
    316 H           7.8762   24.6747    5.0398 H     312  UNK312      0.0000
    317 H           1.1573    5.0398   17.9558 H     313  UNK313      0.0000
    318 H           1.1573   20.7922    7.8762 H     314  UNK314      0.0000
    319 H          24.6747    5.0398    7.8762 H     315  UNK315      0.0000
    320 H          24.6747   20.7922   17.9558 H     316  UNK316      0.0000
    321 H          17.9558   20.7922   24.6747 H     317  UNK317      0.0000
    322 H           7.8762    5.0398   24.6747 H     318  UNK318      0.0000
    323 H           7.8762   20.7922    1.1573 H     319  UNK319      0.0000
    324 H          17.9558    5.0398    1.1573 H     320  UNK320      0.0000
    325 H          24.6747   17.9558   20.7922 H     321  UNK321      0.0000
    326 H          24.6747    7.8762    5.0398 H     322  UNK322      0.0000
    327 H           1.1573    7.8762   20.7922 H     323  UNK323      0.0000
    328 H           1.1573   17.9558    5.0398 H     324  UNK324      0.0000
    329 H          20.7922   24.6747   17.9558 H     325  UNK325      0.0000
    330 H           5.0398   24.6747    7.8762 H     326  UNK326      0.0000
    331 H          20.7922    1.1573    7.8762 H     327  UNK327      0.0000
    332 H           5.0398    1.1573   17.9558 H     328  UNK328      0.0000
    333 H          20.7922   17.9558    1.1573 H     329  UNK329      0.0000
    334 H           5.0398    7.8762    1.1573 H     330  UNK330      0.0000
    335 H          20.7922    7.8762   24.6747 H     331  UNK331      0.0000
    336 H           5.0398   17.9558   24.6747 H     332  UNK332      0.0000
    337 H          17.9558   24.6747    5.0398 H     333  UNK333      0.0000
    338 H           7.8762   24.6747   20.7922 H     334  UNK334      0.0000
    339 H           7.8762    1.1573    5.0398 H     335  UNK335      0.0000
    340 H          17.9558    1.1573   20.7922 H     336  UNK336      0.0000
    341 H          24.6747   20.7922    7.8762 H     337  UNK337      0.0000
    342 H          24.6747    5.0398   17.9558 H     338  UNK338      0.0000
    343 H           1.1573   20.7922   17.9558 H     339  UNK339      0.0000
    344 H           1.1573    5.0398    7.8762 H     340  UNK340      0.0000
    345 H           7.8762   17.9558   14.0733 H     341  UNK341      0.0000
    346 H          17.9558    7.8762   14.0733 H     342  UNK342      0.0000
    347 H          17.9558   17.9558   11.7587 H     343  UNK343      0.0000
    348 H           7.8762    7.8762   11.7587 H     344  UNK344      0.0000
    349 H           5.0398   14.0733   20.7922 H     345  UNK345      0.0000
    350 H          20.7922   14.0733    5.0398 H     346  UNK346      0.0000
    351 H           5.0398   11.7587    5.0398 H     347  UNK347      0.0000
    352 H          20.7922   11.7587   20.7922 H     348  UNK348      0.0000
    353 H           5.0398   20.7922   11.7587 H     349  UNK349      0.0000
    354 H          20.7922    5.0398   11.7587 H     350  UNK350      0.0000
    355 H           5.0398    5.0398   14.0733 H     351  UNK351      0.0000
    356 H          20.7922   20.7922   14.0733 H     352  UNK352      0.0000
    357 H           7.8762   14.0733    7.8762 H     353  UNK353      0.0000
    358 H          17.9558   14.0733   17.9558 H     354  UNK354      0.0000
    359 H          17.9558   11.7587    7.8762 H     355  UNK355      0.0000
    360 H           7.8762   11.7587   17.9558 H     356  UNK356      0.0000
    361 H          17.9558    7.8762   11.7587 H     357  UNK357      0.0000
    362 H           7.8762   17.9558   11.7587 H     358  UNK358      0.0000
    363 H           7.8762    7.8762   14.0733 H     359  UNK359      0.0000
    364 H          17.9558   17.9558   14.0733 H     360  UNK360      0.0000
    365 H          20.7922   11.7587    5.0398 H     361  UNK361      0.0000
    366 H           5.0398   11.7587   20.7922 H     362  UNK362      0.0000
    367 H          20.7922   14.0733   20.7922 H     363  UNK363      0.0000
    368 H           5.0398   14.0733    5.0398 H     364  UNK364      0.0000
    369 H          20.7922    5.0398   14.0733 H     365  UNK365      0.0000
    370 H           5.0398   20.7922   14.0733 H     366  UNK366      0.0000
    371 H          20.7922   20.7922   11.7587 H     367  UNK367      0.0000
    372 H           5.0398    5.0398   11.7587 H     368  UNK368      0.0000
    373 H          17.9558   11.7587   17.9558 H     369  UNK369      0.0000
    374 H           7.8762   11.7587    7.8762 H     370  UNK370      0.0000
    375 H           7.8762   14.0733   17.9558 H     371  UNK371      0.0000
    376 H          17.9558   14.0733    7.8762 H     372  UNK372      0.0000
    377 H          14.0733    7.8762   17.9558 H     373  UNK373      0.0000
    378 H          14.0733   17.9558    7.8762 H     374  UNK374      0.0000
    379 H          11.7587   17.9558   17.9558 H     375  UNK375      0.0000
    380 H          11.7587    7.8762    7.8762 H     376  UNK376      0.0000
    381 H          14.0733    5.0398    5.0398 H     377  UNK377      0.0000
    382 H          14.0733   20.7922   20.7922 H     378  UNK378      0.0000
    383 H          11.7587    5.0398   20.7922 H     379  UNK379      0.0000
    384 H          11.7587   20.7922    5.0398 H     380  UNK380      0.0000
    385 H          11.7587   17.9558    7.8762 H     381  UNK381      0.0000
    386 H          11.7587    7.8762   17.9558 H     382  UNK382      0.0000
    387 H          14.0733    7.8762    7.8762 H     383  UNK383      0.0000
    388 H          14.0733   17.9558   17.9558 H     384  UNK384      0.0000
    389 H          11.7587   20.7922   20.7922 H     385  UNK385      0.0000
    390 H          11.7587    5.0398    5.0398 H     386  UNK386      0.0000
    391 H          14.0733   20.7922    5.0398 H     387  UNK387      0.0000
    392 H          14.0733    5.0398   20.7922 H     388  UNK388      0.0000
@<TRIPOS>BOND
     1     5     6    1
     2     5     4    1
     3     4     3    2
     4     3     2    1
@<TRIPOS>GENERATIONS
0	0
1	0
2	0
3	0
4	0
5	0
