@<TRIPOS>MOLECULE
*****
 5 4 0 0 0
SMALL
GASTEIGER

@<TRIPOS>ATOM
      1 O           7.2820    5.6340    3.4615 O.2     1  UNL1       -0.2835
      2 C           6.4580    6.4580    2.8751 C.2     1  UNL1        0.2294
      3 C           6.4580    6.4580    1.3898 C.2     1  UNL1        0.0146
      4 C           7.3079    5.6081    0.6949 C.3     1  UNL1        0.0033
      5 H           7.8762    5.0398    1.1573 H       1  UNL1        0.0362
@<TRIPOS>BOND
     1     4     5    1
     2     4     3    1
     3     3     2    2
     4     2     1    1
@<TRIPOS>GENERATIONS
0	0
1	0
2	0
3	0
4	0
