@<TRIPOS>MOLECULE
MIL-101(Cr)
 15184 45 0 0 0
SMALL
GASTEIGER

@<TRIPOS>ATOM
      1 O           7.0349    7.0349   15.1833 O.3     1  HOH1        0.0000
      2 O          17.7774   17.7774   26.3079 O.3     2  HOH2        0.0000
      3 O          11.1086  -10.9904   11.1086 O.3     3  HOH3        0.0000
      4 O          14.0520   30.3834   44.4345 O.3     4  HOH4        0.0000
      5 O          76.3109   -8.0142   -6.1888 O.3     5  HOH5        0.0000
      6 O          28.7847   27.1824   64.5598 O.3     6  HOH6        0.0000
      7 O          30.1141   28.6718   71.1574 O.3     7  HOH7        0.0000
      8 O          19.6596   24.3643   72.9330 O.co2   8  UNL8       -0.2457
      9 O          19.3406   24.1679   70.6713 O.co2   8  UNL8       -0.2457
     10 O           6.8438   -6.6110   42.6962 O.co2   9  UNL9       -0.2457
     11 O           7.7991   -5.3295   44.1608 O.co2   9  UNL9       -0.2457
     12 O           7.7831   -2.4181   35.4374 O.co2  10  UNL10      -0.2406
     13 O           9.5747   -2.0022   34.1710 O.co2  10  UNL10      -0.2406
     14 O           8.9980   -9.0549   33.3721 O.co2  10  UNL10      -0.2406
     15 O          10.9238   -8.2710   32.5536 O.co2  10  UNL10      -0.2406
     16 O          61.6413   -5.2530   -6.9362 O.3    11  UNL11      -0.2152
     17 O          57.6218   -9.2228  -10.7140 O.2    11  UNL11      -0.2831
     18 O          16.4612   -2.1115   40.3279 O.co2  12  UNL12      -0.2406
     19 O          16.8202   -2.7443   38.2625 O.co2  12  UNL12      -0.2406
     20 O          10.3906    0.5901   37.9666 O.co2  12  UNL12      -0.2406
     21 O          11.2393   -0.3004   35.9697 O.co2  12  UNL12      -0.2406
     22 O          -5.4228   -9.9400   72.0745 O.3    13  HOH13       0.0000
     23 O          30.5843   25.6591   63.1743 O.3    14  HOH14       0.0000
     24 O          23.8995   18.3443   68.3340 O.3    15  HOH15       0.0000
     25 O          13.6583   31.2561   -9.0389 O.3    16  HOH16       0.0000
     26 O          11.1086   29.5374   55.5431 O.3    17  HOH17       0.0000
     27 O          11.1291   33.3054   44.4345 O.3    18  HOH18       0.0000
     28 O           8.3715   -4.6656   46.6793 O.3    19  HOH19       0.0000
     29 C         -10.7087   -9.7125   -6.1622 C.3    20  UNL20       0.0000
     30 C          13.0264    9.1899    5.8778 C.1     2  HOH2        0.0000
     31 C          12.0657   10.1515    5.9364 C.1     2  HOH2        0.0000
     32 C          29.4716   27.7271   67.1023 C.3     3  HOH3        0.0000
     33 C          16.3643   16.3643   23.6960 C.3     4  HOH4        0.0000
     34 C          15.8676   15.8676   22.4821 C.3     4  HOH4        0.0000
     35 C          29.7764   28.0204   68.4753 C.3     3  HOH3        0.0000
     36 C          15.1815   15.1815   18.3301 C.3     5  HOH5        0.0000
     37 C          15.3459   15.3459   19.7422 C.3     5  HOH5        0.0000
     38 C          20.9935   21.9933   70.8206 C.3     8  UNL8        0.0118
     39 C          20.0844   24.0240   71.7493 C.2     8  UNL8        0.3643
     40 C          21.1108   23.0526   71.7493 C.3     8  UNL8        0.1034
     41 C          21.7782   22.7789   72.9979 C.3     8  UNL8        0.0118
     42 C           6.3843   -4.6487   40.8113 C.3     9  UNL9        0.0118
     43 C           7.1291   -5.4477   43.0624 C.2     9  UNL9        0.3643
     44 C           7.2082   -4.4594   41.9986 C.3     9  UNL9        0.1034
     45 C           8.2559   -3.4952   41.9435 C.3     9  UNL9        0.0118
     46 C           8.1795   -5.1686   34.9673 C.2    10  UNL10       0.0068
     47 C           8.5945   -2.7478   34.5203 C.2    10  UNL10       0.3878
     48 C           8.7900   -4.0844   34.2181 C.2    10  UNL10       0.0798
     49 C           8.4177   -6.4963   34.5549 C.2    10  UNL10       0.0068
     50 C           9.8022   -8.0613   33.1561 C.2    10  UNL10       0.3878
     51 C           9.5703   -6.7443   33.7258 C.2    10  UNL10       0.0798
     52 C           9.9747   -4.2977   33.5445 C.2    10  UNL10       0.0068
     53 C          10.2928   -5.6432   33.1579 C.2    10  UNL10       0.0068
     54 C          61.7373   -6.5230   -6.5230 C.3    11  UNL11       0.2084
     55 C          61.0752   -7.4143   -7.4143 C.2    11  UNL11       0.0091
     56 C          58.0857   -9.6210   -9.6210 C.2    11  UNL11       0.2343
     57 C          58.8171   -8.7127   -8.7127 C.2    11  UNL11       0.0454
     58 C          60.3874   -6.8234   -8.4683 C.2    11  UNL11      -0.0019
     59 C          59.3654   -7.5405   -9.2024 C.2    11  UNL11       0.0031
     60 C          13.9578   -1.2042   39.6098 C.2    12  UNL12       0.0068
     61 C          16.1119   -2.1897   39.1166 C.2    12  UNL12       0.3878
     62 C          14.9202   -1.6059   38.6740 C.2    12  UNL12       0.0798
     63 C          12.8167   -0.5483   39.1699 C.2    12  UNL12       0.0068
     64 C          11.3281   -0.0844   37.2521 C.2    12  UNL12       0.3878
     65 C          12.5972   -0.4346   37.7889 C.2    12  UNL12       0.0798
     66 C          14.6492   -1.6405   37.2965 C.2    12  UNL12       0.0068
     67 C          13.4708   -1.0407   36.8433 C.2    12  UNL12       0.0068
     68 O          27.6169   25.5801   70.0145 O.3    21  HOH21       0.0000
     69 O          21.9622   18.6252   66.3967 O.3    22  HOH22       0.0000
     70 O          19.5325   22.5576   75.9830 O.3    23  HOH23       0.0000
     71 O          15.1086   -4.1911   40.2434 O.3    24  HOH24       0.0000
     72 O          11.5796   -8.5172   35.9173 O.3    25  HOH25       0.0000
     73 O           2.0609  -20.0968   68.7722 O.3    26  HOH26       0.0000
     74 O          16.6852   31.0375   -8.8202 O.3    27  HOH27       0.0000
     75 O         -10.1666  -10.1666  -10.1666 O.3    28  HOH28       0.0000
     76 O          14.0511   28.7971   52.6007 O.3    29  HOH29       0.0000
     77 O          -6.7727   -6.7727   -8.9953 O.3    30  HOH30       0.0000
     78 O          18.5576   33.3259  -11.1086 O.3    31  HOH31       0.0000
     79 O          10.1879   -3.0651   45.7649 O.3    32  HOH32       0.0000
     80 O           7.2517   -6.3008   38.1337 O.3    33  HOH33       0.0000
     81 O          14.1479   -4.1688   34.8909 O.3    34  HOH34       0.0000
     82 O          11.8418   -2.6616   41.7729 O.3    35  HOH35       0.0000
     83 O          13.8858   -1.7312   33.8724 O.3    36  HOH36       0.0000
     84 O          24.5892   24.5892   69.0237 O.3    37  HOH37       0.0000
     85 O          -8.6310   -8.6310   -8.6310 O.3    38  HOH38       0.0000
     86 O          -4.0240  -11.3823   70.6757 O.3    39  HOH39       0.0000
     87 O          14.1497   31.9733   -5.7587 O.3    40  HOH40       0.0000
     88 O          16.4328    2.3221   42.2785 O.3    41  HOH41       0.0000
     89 O          10.2128   -0.9820   43.4525 O.3    42  HOH42       0.0000
     90 O          22.8695   20.7811   67.3040 O.3    43  HOH43       0.0000
     91 O          22.6954   35.0286   -4.1502 O.3    44  HOH44       0.0000
     92 O          11.6054   -3.6374   37.2263 O.3    45  HOH45       0.0000
     93 O          10.9247   -5.2042   39.2303 O.3    46  HOH46       0.0000
     94 O          14.0822   14.0822   58.5176 O.3    47  HOH47       0.0000
     95 O          31.7378   25.1010   61.1276 O.3    48  HOH48       0.0000
     96 O          12.0906   -5.8449   36.5189 O.3    49  HOH49       0.0000
     97 O           7.5201   34.3612   44.4345 O.3    50  HOH50       0.0000
     98 O          20.2506   33.0166   -4.4666 O.3    51  HOH51       0.0000
     99 O          12.3164   29.6582   -7.4410 O.3    52  HOH52       0.0000
    100 O          14.2626    6.0022   37.6964 O.3    53  HOH53       0.0000
    101 O          10.1897    5.6334   39.3361 O.3    54  HOH54       0.0000
    102 O          59.6169   15.1824   59.6178 O.3    55  HOH55       0.0000
    103 O          15.1824   51.4694   51.4685 O.3    56  HOH56       0.0000
    104 O          51.4694   59.6169    7.0340 O.3    57  HOH57       0.0000
    105 O          15.1833    7.0349    7.0349 O.3    58  HOH58       0.0000
    106 O          59.6178   59.6169   15.1824 O.3    59  HOH59       0.0000
    107 O          51.4685   15.1824   51.4694 O.3    60  HOH60       0.0000
    108 O           7.0340   51.4694   59.6169 O.3    61  HOH61       0.0000
    109 O           7.0349   15.1833    7.0349 O.3    62  HOH62       0.0000
    110 O          15.1824   59.6178   59.6169 O.3    63  HOH63       0.0000
    111 O          51.4694   51.4685   15.1824 O.3    64  HOH64       0.0000
    112 O          59.6169    7.0340   51.4694 O.3    65  HOH65       0.0000
    113 O          73.6866   29.2521   29.2512 O.3    66  HOH66       0.0000
    114 O          81.8341   81.8341   73.6857 O.3    67  HOH67       0.0000
    115 O          29.2521   37.3996   81.8350 O.3    68  HOH68       0.0000
    116 O          37.3996   73.6866   37.4005 O.3    69  HOH69       0.0000
    117 O          73.6866   37.4005   37.3996 O.3    70  HOH70       0.0000
    118 O          37.3996   81.8350   29.2521 O.3    71  HOH71       0.0000
    119 O          81.8341   73.6857   81.8341 O.3    72  HOH72       0.0000
    120 O          29.2521   29.2512   73.6866 O.3    73  HOH73       0.0000
    121 O          81.8350   29.2521   37.3996 O.3    74  HOH74       0.0000
    122 O          37.4005   37.3996   73.6866 O.3    75  HOH75       0.0000
    123 O          29.2512   73.6866   29.2521 O.3    76  HOH76       0.0000
    124 O          73.6857   81.8341   81.8341 O.3    77  HOH77       0.0000
    125 O          37.3996   29.2521   81.8350 O.3    78  HOH78       0.0000
    126 O          81.8350   37.3996   29.2521 O.3    79  HOH79       0.0000
    127 O          29.2521   81.8350   37.3996 O.3    80  HOH80       0.0000
    128 O          59.6169   51.4694    7.0340 O.3    81  HOH81       0.0000
    129 O          51.4694    7.0340   59.6169 O.3    82  HOH82       0.0000
    130 O           7.0340   59.6169   51.4694 O.3    83  HOH83       0.0000
    131 O          15.1824   15.1833   15.1824 O.3    84  HOH84       0.0000
    132 O          73.6866   73.6866   73.6857 O.3    85  HOH85       0.0000
    133 O          48.8744    4.4399   70.7424 O.3    86  HOH86       0.0000
    134 O           4.4399   62.2118   40.3439 O.3    87  HOH87       0.0000
    135 O          62.2118   48.8744   84.7784 O.3    88  HOH88       0.0000
    136 O          26.3079   17.7774   17.7774 O.3    89  HOH89       0.0000
    137 O          70.7424   48.8744    4.4399 O.3    90  HOH90       0.0000
    138 O          40.3439    4.4399   62.2118 O.3    91  HOH91       0.0000
    139 O          84.7784   62.2118   48.8744 O.3    92  HOH92       0.0000
    140 O          17.7774   26.3079   17.7774 O.3    93  HOH93       0.0000
    141 O           4.4399   70.7424   48.8744 O.3    94  HOH94       0.0000
    142 O          62.2118   40.3439    4.4399 O.3    95  HOH95       0.0000
    143 O          48.8744   84.7784   62.2118 O.3    96  HOH96       0.0000
    144 O          84.4291   39.9946   18.1266 O.3    97  HOH97       0.0000
    145 O          71.0916   71.0916   62.5611 O.3    98  HOH98       0.0000
    146 O          39.9946   26.6571    4.0906 O.3    99  HOH99       0.0000
    147 O          26.6571   84.4291   48.5251 O.3   100  HOH100      0.0000
    148 O          84.4291   48.5251   26.6571 O.3   101  HOH101      0.0000
    149 O          26.6571    4.0906   39.9946 O.3   102  HOH102      0.0000
    150 O          71.0916   62.5611   71.0916 O.3   103  HOH103      0.0000
    151 O          39.9946   18.1266   84.4291 O.3   104  HOH104      0.0000
    152 O           4.0906   39.9946   26.6571 O.3   105  HOH105      0.0000
    153 O          48.5251   26.6571   84.4291 O.3   106  HOH106      0.0000
    154 O          18.1266   84.4291   39.9946 O.3   107  HOH107      0.0000
    155 O          62.5611   71.0916   71.0916 O.3   108  HOH108      0.0000
    156 O          39.9946   84.4291   18.1266 O.3   109  HOH109      0.0000
    157 O          84.4291   26.6571   48.5251 O.3   110  HOH110      0.0000
    158 O          26.6571   39.9946    4.0906 O.3   111  HOH111      0.0000
    159 O          18.1266   39.9946   84.4291 O.3   112  HOH112      0.0000
    160 O          48.5251   84.4291   26.6571 O.3   113  HOH113      0.0000
    161 O           4.0906   26.6571   39.9946 O.3   114  HOH114      0.0000
    162 O          84.4291   18.1266   39.9946 O.3   115  HOH115      0.0000
    163 O          26.6571   48.5251   84.4291 O.3   116  HOH116      0.0000
    164 O          39.9946    4.0906   26.6571 O.3   117  HOH117      0.0000
    165 O           4.4399   48.8744   70.7424 O.3   118  HOH118      0.0000
    166 O          48.8744   62.2118   84.7784 O.3   119  HOH119      0.0000
    167 O          62.2118    4.4399   40.3439 O.3   120  HOH120      0.0000
    168 O           4.4399   40.3439   62.2118 O.3   121  HOH121      0.0000
    169 O          62.2118   84.7784   48.8744 O.3   122  HOH122      0.0000
    170 O          48.8744   70.7424    4.4399 O.3   123  HOH123      0.0000
    171 O          84.7784   48.8744   62.2118 O.3   124  HOH124      0.0000
    172 O          40.3439   62.2118    4.4399 O.3   125  HOH125      0.0000
    173 O          70.7424    4.4399   48.8744 O.3   126  HOH126      0.0000
    174 O          17.7774   62.2118   70.7424 O.3   127  HOH127      0.0000
    175 O          48.8744   48.8744   26.3079 O.3   128  HOH128      0.0000
    176 O           4.4399   17.7774   84.7784 O.3   129  HOH129      0.0000
    177 O          26.3079   62.2118   62.2118 O.3   130  HOH130      0.0000
    178 O          40.3439   48.8744   17.7774 O.3   131  HOH131      0.0000
    179 O          84.7784   17.7774    4.4399 O.3   132  HOH132      0.0000
    180 O          17.7774   70.7424   62.2118 O.3   133  HOH133      0.0000
    181 O           4.4399   26.3079    4.4399 O.3   134  HOH134      0.0000
    182 O          48.8744   40.3439   17.7774 O.3   135  HOH135      0.0000
    183 O          84.4291   84.4291   62.5611 O.3   136  HOH136      0.0000
    184 O          71.0916   26.6571   18.1266 O.3   137  HOH137      0.0000
    185 O          39.9946   71.0916   48.5251 O.3   138  HOH138      0.0000
    186 O          84.4291    4.0906   71.0916 O.3   139  HOH139      0.0000
    187 O          71.0916   18.1266   26.6571 O.3   140  HOH140      0.0000
    188 O          39.9946   62.5611   39.9946 O.3   141  HOH141      0.0000
    189 O           4.0906   84.4291   71.0916 O.3   142  HOH142      0.0000
    190 O          48.5251   71.0916   39.9946 O.3   143  HOH143      0.0000
    191 O          62.5611   26.6571   26.6571 O.3   144  HOH144      0.0000
    192 O          39.9946   39.9946   62.5611 O.3   145  HOH145      0.0000
    193 O          84.4291   71.0916    4.0906 O.3   146  HOH146      0.0000
    194 O          48.5251   39.9946   71.0916 O.3   147  HOH147      0.0000
    195 O           4.0906   71.0916   84.4291 O.3   148  HOH148      0.0000
    196 O          84.4291   62.5611   84.4291 O.3   149  HOH149      0.0000
    197 O          39.9946   48.5251   71.0916 O.3   150  HOH150      0.0000
    198 O           4.4399    4.4399   26.3079 O.3   151  HOH151      0.0000
    199 O          48.8744   17.7774   40.3439 O.3   152  HOH152      0.0000
    200 O           4.4399   84.7784   17.7774 O.3   153  HOH153      0.0000
    201 O          48.8744   26.3079   48.8744 O.3   154  HOH154      0.0000
    202 O          84.7784    4.4399   17.7774 O.3   155  HOH155      0.0000
    203 O          40.3439   17.7774   48.8744 O.3   156  HOH156      0.0000
    204 O          62.2118   17.7774   70.7424 O.3   157  HOH157      0.0000
    205 O          17.7774   48.8744   40.3439 O.3   158  HOH158      0.0000
    206 O          70.7424   17.7774   62.2118 O.3   159  HOH159      0.0000
    207 O          26.3079   48.8744   48.8744 O.3   160  HOH160      0.0000
    208 O          62.2118   26.3079   62.2118 O.3   161  HOH161      0.0000
    209 O          17.7774   40.3439   48.8744 O.3   162  HOH162      0.0000
    210 O          26.6571   71.0916   18.1266 O.3   163  HOH163      0.0000
    211 O          71.0916   84.4291    4.0906 O.3   164  HOH164      0.0000
    212 O          71.0916    4.0906   84.4291 O.3   165  HOH165      0.0000
    213 O          26.6571   62.5611   26.6571 O.3   166  HOH166      0.0000
    214 O          62.5611   84.4291   84.4291 O.3   167  HOH167      0.0000
    215 O          18.1266   71.0916   26.6571 O.3   168  HOH168      0.0000
    216 O          71.0916   39.9946   48.5251 O.3   169  HOH169      0.0000
    217 O          62.5611   39.9946   39.9946 O.3   170  HOH170      0.0000
    218 O          71.0916   48.5251   39.9946 O.3   171  HOH171      0.0000
    219 O          17.7774    4.4399   84.7784 O.3   172  HOH172      0.0000
    220 O          17.7774   84.7784    4.4399 O.3   173  HOH173      0.0000
    221 O          26.3079    4.4399    4.4399 O.3   174  HOH174      0.0000
    222 O          62.2118   62.2118   26.3079 O.3   175  HOH175      0.0000
    223 O          70.7424   62.2118   17.7774 O.3   176  HOH176      0.0000
    224 O          62.2118   70.7424   17.7774 O.3   177  HOH177      0.0000
    225 O          26.6571   26.6571   62.5611 O.3   178  HOH178      0.0000
    226 O          26.6571   18.1266   71.0916 O.3   179  HOH179      0.0000
    227 O          18.1266   26.6571   71.0916 O.3   180  HOH180      0.0000
    228 O          55.5431   33.2077   55.5431 O.3   181  HOH181      0.0000
    229 O          11.1086   33.4441   55.5431 O.3   182  HOH182      0.0000
    230 O          55.5431   77.6422   11.1086 O.3   183  HOH183      0.0000
    231 O          11.1086   11.1086   77.8786 O.3   184  HOH184      0.0000
    232 O          55.5431   55.5431   33.2077 O.3   185  HOH185      0.0000
    233 O          55.5431   11.1086   33.4441 O.3   186  HOH186      0.0000
    234 O          11.1086   55.5431   77.6422 O.3   187  HOH187      0.0000
    235 O          77.8786   11.1086   11.1086 O.3   188  HOH188      0.0000
    236 O          33.2077   55.5431   55.5431 O.3   189  HOH189      0.0000
    237 O          33.4441   55.5431   11.1086 O.3   190  HOH190      0.0000
    238 O          77.6422   11.1086   55.5431 O.3   191  HOH191      0.0000
    239 O          55.6613   33.3259   33.3259 O.3   192  HOH192      0.0000
    240 O          10.9904   77.7604   77.7604 O.3   193  HOH193      0.0000
    241 O          11.2268   33.3259   77.7604 O.3   194  HOH194      0.0000
    242 O          55.4249   77.7604   33.3259 O.3   195  HOH195      0.0000
    243 O          77.7604   33.3259   55.4249 O.3   196  HOH196      0.0000
    244 O          33.3259   77.7604   11.2268 O.3   197  HOH197      0.0000
    245 O          77.7604   77.7604   10.9904 O.3   198  HOH198      0.0000
    246 O          33.3259   33.3259   55.6613 O.3   199  HOH199      0.0000
    247 O          77.7604   11.2268   33.3259 O.3   200  HOH200      0.0000
    248 O          33.3259   55.4249   77.7604 O.3   201  HOH201      0.0000
    249 O          33.3259   55.6613   33.3259 O.3   202  HOH202      0.0000
    250 O          77.7604   10.9904   77.7604 O.3   203  HOH203      0.0000
    251 O          77.7604   55.4249   33.3259 O.3   204  HOH204      0.0000
    252 O          33.3259   11.2268   77.7604 O.3   205  HOH205      0.0000
    253 O          33.3259   77.7604   55.4249 O.3   206  HOH206      0.0000
    254 O          77.7604   33.3259   11.2268 O.3   207  HOH207      0.0000
    255 O          55.4249   33.3259   77.7604 O.3   208  HOH208      0.0000
    256 O          11.2268   77.7604   33.3259 O.3   209  HOH209      0.0000
    257 O          77.6422   55.5431   11.1086 O.3   210  HOH210      0.0000
    258 O          33.4441   11.1086   55.5431 O.3   211  HOH211      0.0000
    259 O          11.1086   55.5431   33.4441 O.3   212  HOH212      0.0000
    260 O          55.5431   11.1086   77.6422 O.3   213  HOH213      0.0000
    261 O          11.1086   77.6422   55.5431 O.3   214  HOH214      0.0000
    262 O          55.5431   33.4441   11.1086 O.3   215  HOH215      0.0000
    263 O          55.5431   55.5431   77.8786 O.3   216  HOH216      0.0000
    264 O          11.1086   11.1086   33.2077 O.3   217  HOH217      0.0000
    265 O          77.8786   55.5431   55.5431 O.3   218  HOH218      0.0000
    266 O          33.2077   11.1086   11.1086 O.3   219  HOH219      0.0000
    267 O          55.6613   77.7604   77.7604 O.3   220  HOH220      0.0000
    268 O          10.9904   33.3259   33.3259 O.3   221  HOH221      0.0000
    269 O          77.7604   55.6613   77.7604 O.3   222  HOH222      0.0000
    270 O          33.3259   10.9904   33.3259 O.3   223  HOH223      0.0000
    271 O          33.3259   33.3259   10.9904 O.3   224  HOH224      0.0000
    272 O          77.7604   77.7604   55.6613 O.3   225  HOH225      0.0000
    273 O          11.1086   33.2077   11.1086 O.3   226  HOH226      0.0000
    274 O          55.5431   77.8786   55.5431 O.3   227  HOH227      0.0000
    275 O          52.5998   80.7028    0.0000 O.3   228  HOH228      0.0000
    276 O           8.1653   74.8179   22.2172 O.3   229  HOH229      0.0000
    277 O          58.4865   36.2683   66.6517 O.3   230  HOH230      0.0000
    278 O          44.4345   14.0520   30.3834 O.3   231  HOH231      0.0000
    279 O           0.0000   52.5998   80.7028 O.3   232  HOH232      0.0000
    280 O          22.2172    8.1653   74.8179 O.3   233  HOH233      0.0000
    281 O          66.6517   58.4865   36.2683 O.3   234  HOH234      0.0000
    282 O          30.3834   44.4345   14.0520 O.3   235  HOH235      0.0000
    283 O          80.7028    0.0000   52.5998 O.3   236  HOH236      0.0000
    284 O          74.8179   22.2172    8.1653 O.3   237  HOH237      0.0000
    285 O          36.2683   66.6517   58.4865 O.3   238  HOH238      0.0000
    286 O           8.1662   36.2692    0.0000 O.3   239  HOH239      0.0000
    287 O          58.4856   74.8170   44.4345 O.3   240  HOH240      0.0000
    288 O          52.6007   30.3825   22.2172 O.3   241  HOH241      0.0000
    289 O          14.0511   80.7037   66.6517 O.3   242  HOH242      0.0000
    290 O          80.7037   66.6517   14.0511 O.3   243  HOH243      0.0000
    291 O          30.3825   22.2172   52.6007 O.3   244  HOH244      0.0000
    292 O          74.8170   44.4345   58.4856 O.3   245  HOH245      0.0000
    293 O          36.2692    0.0000    8.1662 O.3   246  HOH246      0.0000
    294 O          22.2172   52.6007   30.3825 O.3   247  HOH247      0.0000
    295 O          66.6517   14.0511   80.7037 O.3   248  HOH248      0.0000
    296 O           0.0000    8.1662   36.2692 O.3   249  HOH249      0.0000
    297 O          44.4345   58.4856   74.8170 O.3   250  HOH250      0.0000
    298 O          74.8170   58.4856   44.4345 O.3   251  HOH251      0.0000
    299 O          36.2692    8.1662    0.0000 O.3   252  HOH252      0.0000
    300 O          80.7037   14.0511   66.6517 O.3   253  HOH253      0.0000
    301 O          30.3825   52.6007   22.2172 O.3   254  HOH254      0.0000
    302 O          44.4345   74.8170   58.4856 O.3   255  HOH255      0.0000
    303 O           0.0000   36.2692    8.1662 O.3   256  HOH256      0.0000
    304 O          66.6517   80.7037   14.0511 O.3   257  HOH257      0.0000
    305 O          22.2172   30.3825   52.6007 O.3   258  HOH258      0.0000
    306 O          58.4856   44.4345   74.8170 O.3   259  HOH259      0.0000
    307 O           8.1662    0.0000   36.2692 O.3   260  HOH260      0.0000
    308 O          14.0511   66.6517   80.7037 O.3   261  HOH261      0.0000
    309 O          52.6007   22.2172   30.3825 O.3   262  HOH262      0.0000
    310 O          80.7028   52.5998    0.0000 O.3   263  HOH263      0.0000
    311 O          30.3834   14.0520   44.4345 O.3   264  HOH264      0.0000
    312 O          36.2683   58.4865   66.6517 O.3   265  HOH265      0.0000
    313 O          74.8179    8.1653   22.2172 O.3   266  HOH266      0.0000
    314 O           8.1653   22.2172   74.8179 O.3   267  HOH267      0.0000
    315 O          58.4865   66.6517   36.2683 O.3   268  HOH268      0.0000
    316 O          14.0520   44.4345   30.3834 O.3   269  HOH269      0.0000
    317 O          52.5998    0.0000   80.7028 O.3   270  HOH270      0.0000
    318 O          66.6517   36.2683   58.4865 O.3   271  HOH271      0.0000
    319 O          22.2172   74.8179    8.1653 O.3   272  HOH272      0.0000
    320 O           0.0000   80.7028   52.5998 O.3   273  HOH273      0.0000
    321 O          44.4345   30.3834   14.0520 O.3   274  HOH274      0.0000
    322 O          14.0520   74.8179    0.0000 O.3   275  HOH275      0.0000
    323 O          52.5998   36.2683   44.4345 O.3   276  HOH276      0.0000
    324 O           8.1653   30.3834   66.6517 O.3   277  HOH277      0.0000
    325 O          58.4865   80.7028   22.2172 O.3   278  HOH278      0.0000
    326 O          30.3834    0.0000   58.4865 O.3   279  HOH279      0.0000
    327 O          80.7028   44.4345    8.1653 O.3   280  HOH280      0.0000
    328 O          74.8179   66.6517   52.5998 O.3   281  HOH281      0.0000
    329 O          36.2683   22.2172   14.0520 O.3   282  HOH282      0.0000
    330 O           8.1662   80.7037   44.4345 O.3   283  HOH283      0.0000
    331 O          58.4856   30.3825    0.0000 O.3   284  HOH284      0.0000
    332 O          52.6007   74.8170   66.6517 O.3   285  HOH285      0.0000
    333 O          14.0511   36.2692   22.2172 O.3   286  HOH286      0.0000
    334 O          80.7037   22.2172   58.4856 O.3   287  HOH287      0.0000
    335 O          30.3825   66.6517    8.1662 O.3   288  HOH288      0.0000
    336 O          74.8170    0.0000   14.0511 O.3   289  HOH289      0.0000
    337 O          36.2692   44.4345   52.6007 O.3   290  HOH290      0.0000
    338 O          74.8170   14.0511    0.0000 O.3   291  HOH291      0.0000
    339 O          36.2692   52.6007   44.4345 O.3   292  HOH292      0.0000
    340 O          80.7037   58.4856   22.2172 O.3   293  HOH293      0.0000
    341 O          30.3825    8.1662   66.6517 O.3   294  HOH294      0.0000
    342 O          58.4856    0.0000   30.3825 O.3   295  HOH295      0.0000
    343 O           8.1662   44.4345   80.7037 O.3   296  HOH296      0.0000
    344 O          14.0511   22.2172   36.2692 O.3   297  HOH297      0.0000
    345 O          52.6007   66.6517   74.8170 O.3   298  HOH298      0.0000
    346 O          80.7028    8.1653   44.4345 O.3   299  HOH299      0.0000
    347 O          30.3834   58.4865    0.0000 O.3   300  HOH300      0.0000
    348 O          36.2683   14.0520   22.2172 O.3   301  HOH301      0.0000
    349 O          74.8179   52.5998   66.6517 O.3   302  HOH302      0.0000
    350 O           8.1653   66.6517   30.3834 O.3   303  HOH303      0.0000
    351 O          58.4865   22.2172   80.7028 O.3   304  HOH304      0.0000
    352 O          14.0520    0.0000   74.8179 O.3   305  HOH305      0.0000
    353 O          52.5998   44.4345   36.2683 O.3   306  HOH306      0.0000
    354 O           0.0000   14.0520   74.8179 O.3   307  HOH307      0.0000
    355 O          44.4345   52.5998   36.2683 O.3   308  HOH308      0.0000
    356 O          66.6517    8.1653   30.3834 O.3   309  HOH309      0.0000
    357 O          22.2172   58.4865   80.7028 O.3   310  HOH310      0.0000
    358 O          66.6517   52.6007   74.8170 O.3   311  HOH311      0.0000
    359 O          22.2172   14.0511   36.2692 O.3   312  HOH312      0.0000
    360 O          44.4345    8.1662   80.7037 O.3   313  HOH313      0.0000
    361 O           0.0000   58.4856   30.3825 O.3   314  HOH314      0.0000
    362 O           0.0000   74.8170   14.0511 O.3   315  HOH315      0.0000
    363 O          44.4345   36.2692   52.6007 O.3   316  HOH316      0.0000
    364 O          22.2172   80.7037   58.4856 O.3   317  HOH317      0.0000
    365 O          66.6517   30.3825    8.1662 O.3   318  HOH318      0.0000
    366 O          22.2172   36.2683   14.0520 O.3   319  HOH319      0.0000
    367 O          66.6517   74.8179   52.5998 O.3   320  HOH320      0.0000
    368 O          44.4345   80.7028    8.1653 O.3   321  HOH321      0.0000
    369 O           0.0000   30.3834   58.4865 O.3   322  HOH322      0.0000
    370 O          79.2098   30.2315   38.2457 O.3   323  HOH323      0.0000
    371 O          34.7753   36.4203   72.8406 O.3   324  HOH324      0.0000
    372 O          31.8764   74.6659   28.4061 O.3   325  HOH325      0.0000
    373 O          82.6802   76.3109   80.8548 O.3   326  HOH326      0.0000
    374 O          38.2457   79.2098   30.2315 O.3   327  HOH327      0.0000
    375 O          72.8406   34.7753   36.4203 O.3   328  HOH328      0.0000
    376 O          28.4061   31.8764   74.6659 O.3   329  HOH329      0.0000
    377 O          80.8548   82.6802   76.3109 O.3   330  HOH330      0.0000
    378 O          30.2315   38.2457   79.2098 O.3   331  HOH331      0.0000
    379 O          36.4203   72.8406   34.7753 O.3   332  HOH332      0.0000
    380 O          74.6659   28.4061   31.8764 O.3   333  HOH333      0.0000
    381 O          58.6375    9.6592   50.6233 O.3   334  HOH334      0.0000
    382 O           8.0142   12.5581    6.1888 O.3   335  HOH335      0.0000
    383 O          14.2030   56.9926   60.4629 O.3   336  HOH336      0.0000
    384 O          52.4487   54.0937   16.0284 O.3   337  HOH337      0.0000
    385 O          54.0937   16.0284   52.4487 O.3   338  HOH338      0.0000
    386 O          56.9926   60.4629   14.2030 O.3   339  HOH339      0.0000
    387 O          12.5581    6.1888    8.0142 O.3   340  HOH340      0.0000
    388 O           9.6592   50.6233   58.6375 O.3   341  HOH341      0.0000
    389 O          60.4629   14.2030   56.9926 O.3   342  HOH342      0.0000
    390 O          16.0284   52.4487   54.0937 O.3   343  HOH343      0.0000
    391 O          50.6233   58.6375    9.6592 O.3   344  HOH344      0.0000
    392 O           6.1888    8.0142   12.5581 O.3   345  HOH345      0.0000
    393 O          12.5581    8.0142    6.1888 O.3   346  HOH346      0.0000
    394 O           9.6592   58.6375   50.6233 O.3   347  HOH347      0.0000
    395 O          54.0937   52.4487   16.0284 O.3   348  HOH348      0.0000
    396 O          56.9926   14.2030   60.4629 O.3   349  HOH349      0.0000
    397 O           6.1888   12.5581    8.0142 O.3   350  HOH350      0.0000
    398 O          50.6233    9.6592   58.6375 O.3   351  HOH351      0.0000
    399 O          16.0284   54.0937   52.4487 O.3   352  HOH352      0.0000
    400 O          60.4629   56.9926   14.2030 O.3   353  HOH353      0.0000
    401 O           8.0142    6.1888   12.5581 O.3   354  HOH354      0.0000
    402 O          58.6375   50.6233    9.6592 O.3   355  HOH355      0.0000
    403 O          52.4487   16.0284   54.0937 O.3   356  HOH356      0.0000
    404 O          14.2030   60.4629   56.9926 O.3   357  HOH357      0.0000
    405 O          30.2315   79.2098   38.2457 O.3   358  HOH358      0.0000
    406 O          80.8548   76.3109   82.6802 O.3   359  HOH359      0.0000
    407 O          74.6659   31.8764   28.4061 O.3   360  HOH360      0.0000
    408 O          36.4203   34.7753   72.8406 O.3   361  HOH361      0.0000
    409 O          34.7753   72.8406   36.4203 O.3   362  HOH362      0.0000
    410 O          31.8764   28.4061   74.6659 O.3   363  HOH363      0.0000
    411 O          76.3109   82.6802   80.8548 O.3   364  HOH364      0.0000
    412 O          79.2098   38.2457   30.2315 O.3   365  HOH365      0.0000
    413 O          28.4061   74.6659   31.8764 O.3   366  HOH366      0.0000
    414 O          72.8406   36.4203   34.7753 O.3   367  HOH367      0.0000
    415 O          38.2457   30.2315   79.2098 O.3   368  HOH368      0.0000
    416 O          82.6802   80.8548   76.3109 O.3   369  HOH369      0.0000
    417 O          76.3109   36.4203   38.2457 O.3   370  HOH370      0.0000
    418 O          79.2098   74.6659   82.6802 O.3   371  HOH371      0.0000
    419 O          34.7753   80.8548   28.4061 O.3   372  HOH372      0.0000
    420 O          31.8764   30.2315   72.8406 O.3   373  HOH373      0.0000
    421 O          82.6802   31.8764   36.4203 O.3   374  HOH374      0.0000
    422 O          38.2457   34.7753   74.6659 O.3   375  HOH375      0.0000
    423 O          72.8406   79.2098   80.8548 O.3   376  HOH376      0.0000
    424 O          28.4061   76.3109   30.2315 O.3   377  HOH377      0.0000
    425 O          80.8548   38.2457   31.8764 O.3   378  HOH378      0.0000
    426 O          30.2315   82.6802   34.7753 O.3   379  HOH379      0.0000
    427 O          36.4203   28.4061   79.2098 O.3   380  HOH380      0.0000
    428 O          74.6659   72.8406   76.3109 O.3   381  HOH381      0.0000
    429 O          58.6375   54.0937    6.1888 O.3   382  HOH382      0.0000
    430 O           8.0142   56.9926   50.6233 O.3   383  HOH383      0.0000
    431 O          14.2030   12.5581   16.0284 O.3   384  HOH384      0.0000
    432 O          52.4487    9.6592   60.4629 O.3   385  HOH385      0.0000
    433 O          54.0937   60.4629    8.0142 O.3   386  HOH386      0.0000
    434 O          56.9926   16.0284   58.6375 O.3   387  HOH387      0.0000
    435 O          12.5581   50.6233   52.4487 O.3   388  HOH388      0.0000
    436 O           9.6592    6.1888   14.2030 O.3   389  HOH389      0.0000
    437 O          60.4629   58.6375   12.5581 O.3   390  HOH390      0.0000
    438 O          16.0284    8.0142    9.6592 O.3   391  HOH391      0.0000
    439 O          50.6233   14.2030   54.0937 O.3   392  HOH392      0.0000
    440 O           6.1888   52.4487   56.9926 O.3   393  HOH393      0.0000
    441 O          12.5581   52.4487   50.6233 O.3   394  HOH394      0.0000
    442 O           9.6592   14.2030    6.1888 O.3   395  HOH395      0.0000
    443 O          54.0937    8.0142   60.4629 O.3   396  HOH396      0.0000
    444 O          56.9926   58.6375   16.0284 O.3   397  HOH397      0.0000
    445 O           6.1888   56.9926   52.4487 O.3   398  HOH398      0.0000
    446 O          50.6233   54.0937   14.2030 O.3   399  HOH399      0.0000
    447 O          16.0284    9.6592    8.0142 O.3   400  HOH400      0.0000
    448 O          60.4629   12.5581   58.6375 O.3   401  HOH401      0.0000
    449 O           8.0142   50.6233   56.9926 O.3   402  HOH402      0.0000
    450 O          58.6375    6.1888   54.0937 O.3   403  HOH403      0.0000
    451 O          52.4487   60.4629    9.6592 O.3   404  HOH404      0.0000
    452 O          14.2030   16.0284   12.5581 O.3   405  HOH405      0.0000
    453 O          30.2315   34.7753   82.6802 O.3   406  HOH406      0.0000
    454 O          80.8548   31.8764   38.2457 O.3   407  HOH407      0.0000
    455 O          74.6659   76.3109   72.8406 O.3   408  HOH408      0.0000
    456 O          36.4203   79.2098   28.4061 O.3   409  HOH409      0.0000
    457 O          34.7753   28.4061   80.8548 O.3   410  HOH410      0.0000
    458 O          31.8764   72.8406   30.2315 O.3   411  HOH411      0.0000
    459 O          76.3109   38.2457   36.4203 O.3   412  HOH412      0.0000
    460 O          79.2098   82.6802   74.6659 O.3   413  HOH413      0.0000
    461 O          28.4061   30.2315   76.3109 O.3   414  HOH414      0.0000
    462 O          72.8406   80.8548   79.2098 O.3   415  HOH415      0.0000
    463 O          38.2457   74.6659   34.7753 O.3   416  HOH416      0.0000
    464 O          82.6802   36.4203   31.8764 O.3   417  HOH417      0.0000
    465 O          31.8764   80.8548   38.2457 O.3   418  HOH418      0.0000
    466 O          34.7753   30.2315   82.6802 O.3   419  HOH419      0.0000
    467 O          79.2098   36.4203   28.4061 O.3   420  HOH420      0.0000
    468 O          76.3109   74.6659   72.8406 O.3   421  HOH421      0.0000
    469 O          38.2457   76.3109   36.4203 O.3   422  HOH422      0.0000
    470 O          82.6802   79.2098   74.6659 O.3   423  HOH423      0.0000
    471 O          28.4061   34.7753   80.8548 O.3   424  HOH424      0.0000
    472 O          72.8406   31.8764   30.2315 O.3   425  HOH425      0.0000
    473 O          36.4203   82.6802   31.8764 O.3   426  HOH426      0.0000
    474 O          74.6659   38.2457   34.7753 O.3   427  HOH427      0.0000
    475 O          80.8548   72.8406   79.2098 O.3   428  HOH428      0.0000
    476 O          30.2315   28.4061   76.3109 O.3   429  HOH429      0.0000
    477 O          14.2030    9.6592    6.1888 O.3   430  HOH430      0.0000
    478 O          52.4487   12.5581   50.6233 O.3   431  HOH431      0.0000
    479 O          58.6375   56.9926   16.0284 O.3   432  HOH432      0.0000
    480 O           8.0142   54.0937   60.4629 O.3   433  HOH433      0.0000
    481 O           9.6592   16.0284    8.0142 O.3   434  HOH434      0.0000
    482 O          12.5581   60.4629   58.6375 O.3   435  HOH435      0.0000
    483 O          56.9926    6.1888   52.4487 O.3   436  HOH436      0.0000
    484 O          54.0937   50.6233   14.2030 O.3   437  HOH437      0.0000
    485 O          16.0284   14.2030   12.5581 O.3   438  HOH438      0.0000
    486 O          60.4629   52.4487    9.6592 O.3   439  HOH439      0.0000
    487 O           6.1888   58.6375   54.0937 O.3   440  HOH440      0.0000
    488 O          50.6233    8.0142   56.9926 O.3   441  HOH441      0.0000
    489 O          56.9926    8.0142   50.6233 O.3   442  HOH442      0.0000
    490 O          54.0937   58.6375    6.1888 O.3   443  HOH443      0.0000
    491 O           9.6592   52.4487   60.4629 O.3   444  HOH444      0.0000
    492 O          12.5581   14.2030   16.0284 O.3   445  HOH445      0.0000
    493 O          50.6233   12.5581   52.4487 O.3   446  HOH446      0.0000
    494 O           6.1888    9.6592   14.2030 O.3   447  HOH447      0.0000
    495 O          60.4629   54.0937    8.0142 O.3   448  HOH448      0.0000
    496 O          16.0284   56.9926   58.6375 O.3   449  HOH449      0.0000
    497 O          52.4487    6.1888   56.9926 O.3   450  HOH450      0.0000
    498 O          14.2030   50.6233   54.0937 O.3   451  HOH451      0.0000
    499 O           8.0142   16.0284    9.6592 O.3   452  HOH452      0.0000
    500 O          58.6375   60.4629   12.5581 O.3   453  HOH453      0.0000
    501 O          74.6659   79.2098   82.6802 O.3   454  HOH454      0.0000
    502 O          36.4203   76.3109   38.2457 O.3   455  HOH455      0.0000
    503 O          30.2315   31.8764   72.8406 O.3   456  HOH456      0.0000
    504 O          80.8548   34.7753   28.4061 O.3   457  HOH457      0.0000
    505 O          79.2098   72.8406   80.8548 O.3   458  HOH458      0.0000
    506 O          76.3109   28.4061   30.2315 O.3   459  HOH459      0.0000
    507 O          31.8764   82.6802   36.4203 O.3   460  HOH460      0.0000
    508 O          34.7753   38.2457   74.6659 O.3   461  HOH461      0.0000
    509 O          72.8406   74.6659   76.3109 O.3   462  HOH462      0.0000
    510 O          28.4061   36.4203   79.2098 O.3   463  HOH463      0.0000
    511 O          82.6802   30.2315   34.7753 O.3   464  HOH464      0.0000
    512 O          38.2457   80.8548   31.8764 O.3   465  HOH465      0.0000
    513 O          31.8764   36.4203   82.6802 O.3   466  HOH466      0.0000
    514 O          34.7753   74.6659   38.2457 O.3   467  HOH467      0.0000
    515 O          79.2098   80.8548   72.8406 O.3   468  HOH468      0.0000
    516 O          76.3109   30.2315   28.4061 O.3   469  HOH469      0.0000
    517 O          38.2457   31.8764   80.8548 O.3   470  HOH470      0.0000
    518 O          82.6802   34.7753   30.2315 O.3   471  HOH471      0.0000
    519 O          28.4061   79.2098   36.4203 O.3   472  HOH472      0.0000
    520 O          72.8406   76.3109   74.6659 O.3   473  HOH473      0.0000
    521 O          36.4203   38.2457   76.3109 O.3   474  HOH474      0.0000
    522 O          74.6659   82.6802   79.2098 O.3   475  HOH475      0.0000
    523 O          80.8548   28.4061   34.7753 O.3   476  HOH476      0.0000
    524 O          30.2315   72.8406   31.8764 O.3   477  HOH477      0.0000
    525 O          14.2030   54.0937   50.6233 O.3   478  HOH478      0.0000
    526 O          52.4487   56.9926    6.1888 O.3   479  HOH479      0.0000
    527 O          58.6375   12.5581   60.4629 O.3   480  HOH480      0.0000
    528 O           8.0142    9.6592   16.0284 O.3   481  HOH481      0.0000
    529 O           9.6592   60.4629   52.4487 O.3   482  HOH482      0.0000
    530 O          12.5581   16.0284   14.2030 O.3   483  HOH483      0.0000
    531 O          56.9926   50.6233    8.0142 O.3   484  HOH484      0.0000
    532 O          54.0937    6.1888   58.6375 O.3   485  HOH485      0.0000
    533 O          16.0284   58.6375   56.9926 O.3   486  HOH486      0.0000
    534 O          60.4629    8.0142   54.0937 O.3   487  HOH487      0.0000
    535 O           6.1888   14.2030    9.6592 O.3   488  HOH488      0.0000
    536 O          50.6233   52.4487   12.5581 O.3   489  HOH489      0.0000
    537 O          56.9926   52.4487    6.1888 O.3   490  HOH490      0.0000
    538 O          54.0937   14.2030   50.6233 O.3   491  HOH491      0.0000
    539 O           9.6592    8.0142   16.0284 O.3   492  HOH492      0.0000
    540 O          12.5581   58.6375   60.4629 O.3   493  HOH493      0.0000
    541 O          50.6233   56.9926    8.0142 O.3   494  HOH494      0.0000
    542 O           6.1888   54.0937   58.6375 O.3   495  HOH495      0.0000
    543 O          60.4629    9.6592   52.4487 O.3   496  HOH496      0.0000
    544 O          16.0284   12.5581   14.2030 O.3   497  HOH497      0.0000
    545 O          52.4487   50.6233   12.5581 O.3   498  HOH498      0.0000
    546 O          14.2030    6.1888    9.6592 O.3   499  HOH499      0.0000
    547 O           8.0142   60.4629   54.0937 O.3   500  HOH500      0.0000
    548 O          58.6375   16.0284   56.9926 O.3   501  HOH501      0.0000
    549 O          74.6659   34.7753   38.2457 O.3   502  HOH502      0.0000
    550 O          36.4203   31.8764   82.6802 O.3   503  HOH503      0.0000
    551 O          30.2315   76.3109   28.4061 O.3   504  HOH504      0.0000
    552 O          80.8548   79.2098   72.8406 O.3   505  HOH505      0.0000
    553 O          79.2098   28.4061   36.4203 O.3   506  HOH506      0.0000
    554 O          76.3109   72.8406   74.6659 O.3   507  HOH507      0.0000
    555 O          31.8764   38.2457   80.8548 O.3   508  HOH508      0.0000
    556 O          34.7753   82.6802   30.2315 O.3   509  HOH509      0.0000
    557 O          72.8406   30.2315   31.8764 O.3   510  HOH510      0.0000
    558 O          28.4061   80.8548   34.7753 O.3   511  HOH511      0.0000
    559 O          82.6802   74.6659   79.2098 O.3   512  HOH512      0.0000
    560 O          38.2457   36.4203   76.3109 O.3   513  HOH513      0.0000
    561 O          37.8671   83.9039   20.1253 O.3   514  HOH514      0.0000
    562 O          82.3016   71.6169    2.0920 O.3   515  HOH515      0.0000
    563 O          73.2192   39.4694   46.5265 O.3   516  HOH516      0.0000
    564 O          64.5598   28.7847   27.1824 O.3   517  HOH517      0.0000
    565 O          20.1253   37.8671   83.9039 O.3   518  HOH518      0.0000
    566 O           2.0920   82.3016   71.6169 O.3   519  HOH519      0.0000
    567 O          46.5265   73.2192   39.4694 O.3   520  HOH520      0.0000
    568 O          27.1824   64.5598   28.7847 O.3   521  HOH521      0.0000
    569 O          83.9039   20.1253   37.8671 O.3   522  HOH522      0.0000
    570 O          71.6169    2.0920   82.3016 O.3   523  HOH523      0.0000
    571 O          39.4694   46.5265   73.2192 O.3   524  HOH524      0.0000
    572 O           4.9651   51.0019   68.7437 O.3   525  HOH525      0.0000
    573 O          61.6866   60.0843   24.3092 O.3   526  HOH526      0.0000
    574 O          49.3996   15.6498   42.3425 O.3   527  HOH527      0.0000
    575 O          17.2521    6.5674   86.7770 O.3   528  HOH528      0.0000
    576 O           6.5674   86.7770   17.2521 O.3   529  HOH529      0.0000
    577 O          15.6498   42.3425   49.3996 O.3   530  HOH530      0.0000
    578 O          60.0843   24.3092   61.6866 O.3   531  HOH531      0.0000
    579 O          51.0019   68.7437    4.9651 O.3   532  HOH532      0.0000
    580 O          42.3425   49.3996   15.6498 O.3   533  HOH533      0.0000
    581 O          86.7770   17.2521    6.5674 O.3   534  HOH534      0.0000
    582 O          68.7437    4.9651   51.0019 O.3   535  HOH535      0.0000
    583 O          24.3092   61.6866   60.0843 O.3   536  HOH536      0.0000
    584 O          60.0843   61.6866   24.3092 O.3   537  HOH537      0.0000
    585 O          51.0019    4.9651   68.7437 O.3   538  HOH538      0.0000
    586 O           6.5674   17.2521   86.7770 O.3   539  HOH539      0.0000
    587 O          15.6498   49.3996   42.3425 O.3   540  HOH540      0.0000
    588 O          24.3092   60.0843   61.6866 O.3   541  HOH541      0.0000
    589 O          68.7437   51.0019    4.9651 O.3   542  HOH542      0.0000
    590 O          86.7770    6.5674   17.2521 O.3   543  HOH543      0.0000
    591 O          42.3425   15.6498   49.3996 O.3   544  HOH544      0.0000
    592 O          61.6866   24.3092   60.0843 O.3   545  HOH545      0.0000
    593 O           4.9651   68.7437   51.0019 O.3   546  HOH546      0.0000
    594 O          17.2521   86.7770    6.5674 O.3   547  HOH547      0.0000
    595 O          49.3996   42.3425   15.6498 O.3   548  HOH548      0.0000
    596 O          83.9039   37.8671   20.1253 O.3   549  HOH549      0.0000
    597 O          27.1824   28.7847   64.5598 O.3   550  HOH550      0.0000
    598 O          39.4694   73.2192   46.5265 O.3   551  HOH551      0.0000
    599 O          71.6169   82.3016    2.0920 O.3   552  HOH552      0.0000
    600 O          82.3016    2.0920   71.6169 O.3   553  HOH553      0.0000
    601 O          73.2192   46.5265   39.4694 O.3   554  HOH554      0.0000
    602 O          28.7847   64.5598   27.1824 O.3   555  HOH555      0.0000
    603 O          37.8671   20.1253   83.9039 O.3   556  HOH556      0.0000
    604 O          46.5265   39.4694   73.2192 O.3   557  HOH557      0.0000
    605 O           2.0920   71.6169   82.3016 O.3   558  HOH558      0.0000
    606 O          20.1253   83.9039   37.8671 O.3   559  HOH559      0.0000
    607 O          64.5598   27.1824   28.7847 O.3   560  HOH560      0.0000
    608 O          28.7847   71.6169   20.1253 O.3   561  HOH561      0.0000
    609 O          37.8671   39.4694   64.5598 O.3   562  HOH562      0.0000
    610 O          82.3016   27.1824   46.5265 O.3   563  HOH563      0.0000
    611 O          73.2192   83.9039    2.0920 O.3   564  HOH564      0.0000
    612 O          64.5598   73.2192   71.6169 O.3   565  HOH565      0.0000
    613 O          20.1253   82.3016   39.4694 O.3   566  HOH566      0.0000
    614 O           2.0920   37.8671   27.1824 O.3   567  HOH567      0.0000
    615 O          46.5265   28.7847   83.9039 O.3   568  HOH568      0.0000
    616 O          27.1824   20.1253   73.2192 O.3   569  HOH569      0.0000
    617 O          83.9039   64.5598   82.3016 O.3   570  HOH570      0.0000
    618 O          71.6169   46.5265   37.8671 O.3   571  HOH571      0.0000
    619 O          39.4694    2.0920   28.7847 O.3   572  HOH572      0.0000
    620 O           4.9651    6.5674   24.3092 O.3   573  HOH573      0.0000
    621 O          61.6866   15.6498   68.7437 O.3   574  HOH574      0.0000
    622 O          49.3996   60.0843   86.7770 O.3   575  HOH575      0.0000
    623 O          17.2521   51.0019   42.3425 O.3   576  HOH576      0.0000
    624 O           6.5674   42.3425   61.6866 O.3   577  HOH577      0.0000
    625 O          15.6498   86.7770    4.9651 O.3   578  HOH578      0.0000
    626 O          60.0843   68.7437   17.2521 O.3   579  HOH579      0.0000
    627 O          51.0019   24.3092   49.3996 O.3   580  HOH580      0.0000
    628 O          42.3425    4.9651   60.0843 O.3   581  HOH581      0.0000
    629 O          86.7770   61.6866   51.0019 O.3   582  HOH582      0.0000
    630 O          68.7437   49.3996    6.5674 O.3   583  HOH583      0.0000
    631 O          24.3092   17.2521   15.6498 O.3   584  HOH584      0.0000
    632 O          60.0843   17.2521   68.7437 O.3   585  HOH585      0.0000
    633 O          51.0019   49.3996   24.3092 O.3   586  HOH586      0.0000
    634 O           6.5674   61.6866   42.3425 O.3   587  HOH587      0.0000
    635 O          15.6498    4.9651   86.7770 O.3   588  HOH588      0.0000
    636 O          24.3092   15.6498   17.2521 O.3   589  HOH589      0.0000
    637 O          68.7437    6.5674   49.3996 O.3   590  HOH590      0.0000
    638 O          86.7770   51.0019   61.6866 O.3   591  HOH591      0.0000
    639 O          42.3425   60.0843    4.9651 O.3   592  HOH592      0.0000
    640 O          61.6866   68.7437   15.6498 O.3   593  HOH593      0.0000
    641 O           4.9651   24.3092    6.5674 O.3   594  HOH594      0.0000
    642 O          17.2521   42.3425   51.0019 O.3   595  HOH595      0.0000
    643 O          49.3996   86.7770   60.0843 O.3   596  HOH596      0.0000
    644 O          83.9039   82.3016   64.5598 O.3   597  HOH597      0.0000
    645 O          27.1824   73.2192   20.1253 O.3   598  HOH598      0.0000
    646 O          39.4694   28.7847    2.0920 O.3   599  HOH599      0.0000
    647 O          71.6169   37.8671   46.5265 O.3   600  HOH600      0.0000
    648 O          82.3016   46.5265   27.1824 O.3   601  HOH601      0.0000
    649 O          73.2192    2.0920   83.9039 O.3   602  HOH602      0.0000
    650 O          28.7847   20.1253   71.6169 O.3   603  HOH603      0.0000
    651 O          37.8671   64.5598   39.4694 O.3   604  HOH604      0.0000
    652 O          46.5265   83.9039   28.7847 O.3   605  HOH605      0.0000
    653 O           2.0920   27.1824   37.8671 O.3   606  HOH606      0.0000
    654 O          20.1253   39.4694   82.3016 O.3   607  HOH607      0.0000
    655 O          64.5598   71.6169   73.2192 O.3   608  HOH608      0.0000
    656 O          73.2192   27.1824   20.1253 O.3   609  HOH609      0.0000
    657 O          82.3016   83.9039   64.5598 O.3   610  HOH610      0.0000
    658 O          37.8671   71.6169   46.5265 O.3   611  HOH611      0.0000
    659 O          28.7847   39.4694    2.0920 O.3   612  HOH612      0.0000
    660 O          20.1253   28.7847   71.6169 O.3   613  HOH613      0.0000
    661 O          64.5598   37.8671   39.4694 O.3   614  HOH614      0.0000
    662 O          46.5265   82.3016   27.1824 O.3   615  HOH615      0.0000
    663 O           2.0920   73.2192   83.9039 O.3   616  HOH616      0.0000
    664 O          71.6169   64.5598   73.2192 O.3   617  HOH617      0.0000
    665 O          39.4694   20.1253   82.3016 O.3   618  HOH618      0.0000
    666 O          27.1824    2.0920   37.8671 O.3   619  HOH619      0.0000
    667 O          83.9039   46.5265   28.7847 O.3   620  HOH620      0.0000
    668 O          49.3996   51.0019   24.3092 O.3   621  HOH621      0.0000
    669 O          17.2521   60.0843   68.7437 O.3   622  HOH622      0.0000
    670 O           4.9651   15.6498   86.7770 O.3   623  HOH623      0.0000
    671 O          61.6866    6.5674   42.3425 O.3   624  HOH624      0.0000
    672 O          51.0019   86.7770   61.6866 O.3   625  HOH625      0.0000
    673 O          60.0843   42.3425    4.9651 O.3   626  HOH626      0.0000
    674 O          15.6498   24.3092   17.2521 O.3   627  HOH627      0.0000
    675 O           6.5674   68.7437   49.3996 O.3   628  HOH628      0.0000
    676 O          86.7770   49.3996   60.0843 O.3   629  HOH629      0.0000
    677 O          42.3425   17.2521   51.0019 O.3   630  HOH630      0.0000
    678 O          24.3092    4.9651    6.5674 O.3   631  HOH631      0.0000
    679 O          68.7437   61.6866   15.6498 O.3   632  HOH632      0.0000
    680 O          15.6498   61.6866   68.7437 O.3   633  HOH633      0.0000
    681 O           6.5674    4.9651   24.3092 O.3   634  HOH634      0.0000
    682 O          51.0019   17.2521   42.3425 O.3   635  HOH635      0.0000
    683 O          60.0843   49.3996   86.7770 O.3   636  HOH636      0.0000
    684 O          68.7437   60.0843   17.2521 O.3   637  HOH637      0.0000
    685 O          24.3092   51.0019   49.3996 O.3   638  HOH638      0.0000
    686 O          42.3425    6.5674   61.6866 O.3   639  HOH639      0.0000
    687 O          86.7770   15.6498    4.9651 O.3   640  HOH640      0.0000
    688 O          17.2521   24.3092   15.6498 O.3   641  HOH641      0.0000
    689 O          49.3996   68.7437    6.5674 O.3   642  HOH642      0.0000
    690 O          61.6866   86.7770   51.0019 O.3   643  HOH643      0.0000
    691 O           4.9651   42.3425   60.0843 O.3   644  HOH644      0.0000
    692 O          39.4694   37.8671   64.5598 O.3   645  HOH645      0.0000
    693 O          71.6169   28.7847   20.1253 O.3   646  HOH646      0.0000
    694 O          83.9039   73.2192    2.0920 O.3   647  HOH647      0.0000
    695 O          27.1824   82.3016   46.5265 O.3   648  HOH648      0.0000
    696 O          37.8671    2.0920   27.1824 O.3   649  HOH649      0.0000
    697 O          28.7847   46.5265   83.9039 O.3   650  HOH650      0.0000
    698 O          73.2192   64.5598   71.6169 O.3   651  HOH651      0.0000
    699 O          82.3016   20.1253   39.4694 O.3   652  HOH652      0.0000
    700 O           2.0920   39.4694   28.7847 O.3   653  HOH653      0.0000
    701 O          46.5265   71.6169   37.8671 O.3   654  HOH654      0.0000
    702 O          64.5598   83.9039   82.3016 O.3   655  HOH655      0.0000
    703 O          20.1253   27.1824   73.2192 O.3   656  HOH656      0.0000
    704 O          73.2192   71.6169   64.5598 O.3   657  HOH657      0.0000
    705 O          82.3016   39.4694   20.1253 O.3   658  HOH658      0.0000
    706 O          37.8671   27.1824    2.0920 O.3   659  HOH659      0.0000
    707 O          28.7847   83.9039   46.5265 O.3   660  HOH660      0.0000
    708 O          20.1253   73.2192   27.1824 O.3   661  HOH661      0.0000
    709 O          64.5598   82.3016   83.9039 O.3   662  HOH662      0.0000
    710 O          46.5265   37.8671   71.6169 O.3   663  HOH663      0.0000
    711 O           2.0920   28.7847   39.4694 O.3   664  HOH664      0.0000
    712 O          71.6169   20.1253   28.7847 O.3   665  HOH665      0.0000
    713 O          39.4694   64.5598   37.8671 O.3   666  HOH666      0.0000
    714 O          27.1824   46.5265   82.3016 O.3   667  HOH667      0.0000
    715 O          83.9039    2.0920   73.2192 O.3   668  HOH668      0.0000
    716 O          49.3996    6.5674   68.7437 O.3   669  HOH669      0.0000
    717 O          17.2521   15.6498   24.3092 O.3   670  HOH670      0.0000
    718 O           4.9651   60.0843   42.3425 O.3   671  HOH671      0.0000
    719 O          61.6866   51.0019   86.7770 O.3   672  HOH672      0.0000
    720 O          51.0019   42.3425   17.2521 O.3   673  HOH673      0.0000
    721 O          60.0843   86.7770   49.3996 O.3   674  HOH674      0.0000
    722 O          15.6498   68.7437   61.6866 O.3   675  HOH675      0.0000
    723 O           6.5674   24.3092    4.9651 O.3   676  HOH676      0.0000
    724 O          86.7770    4.9651   15.6498 O.3   677  HOH677      0.0000
    725 O          42.3425   61.6866    6.5674 O.3   678  HOH678      0.0000
    726 O          24.3092   49.3996   51.0019 O.3   679  HOH679      0.0000
    727 O          68.7437   17.2521   60.0843 O.3   680  HOH680      0.0000
    728 O          15.6498   17.2521   24.3092 O.3   681  HOH681      0.0000
    729 O           6.5674   49.3996   68.7437 O.3   682  HOH682      0.0000
    730 O          51.0019   61.6866   86.7770 O.3   683  HOH683      0.0000
    731 O          60.0843    4.9651   42.3425 O.3   684  HOH684      0.0000
    732 O          68.7437   15.6498   61.6866 O.3   685  HOH685      0.0000
    733 O          24.3092    6.5674    4.9651 O.3   686  HOH686      0.0000
    734 O          42.3425   51.0019   17.2521 O.3   687  HOH687      0.0000
    735 O          86.7770   60.0843   49.3996 O.3   688  HOH688      0.0000
    736 O          17.2521   68.7437   60.0843 O.3   689  HOH689      0.0000
    737 O          49.3996   24.3092   51.0019 O.3   690  HOH690      0.0000
    738 O          61.6866   42.3425    6.5674 O.3   691  HOH691      0.0000
    739 O           4.9651   86.7770   15.6498 O.3   692  HOH692      0.0000
    740 O          39.4694   82.3016   20.1253 O.3   693  HOH693      0.0000
    741 O          71.6169   73.2192   64.5598 O.3   694  HOH694      0.0000
    742 O          83.9039   28.7847   46.5265 O.3   695  HOH695      0.0000
    743 O          27.1824   37.8671    2.0920 O.3   696  HOH696      0.0000
    744 O          37.8671   46.5265   71.6169 O.3   697  HOH697      0.0000
    745 O          28.7847    2.0920   39.4694 O.3   698  HOH698      0.0000
    746 O          73.2192   20.1253   27.1824 O.3   699  HOH699      0.0000
    747 O          82.3016   64.5598   83.9039 O.3   700  HOH700      0.0000
    748 O           2.0920   83.9039   73.2192 O.3   701  HOH701      0.0000
    749 O          46.5265   27.1824   82.3016 O.3   702  HOH702      0.0000
    750 O          64.5598   39.4694   37.8671 O.3   703  HOH703      0.0000
    751 O          20.1253   71.6169   28.7847 O.3   704  HOH704      0.0000
    752 O          36.5376   82.4144   26.7229 O.3   705  HOH705      0.0000
    753 O          80.9721   73.1063   84.3633 O.3   706  HOH706      0.0000
    754 O          74.5486   37.9799   39.9288 O.3   707  HOH707      0.0000
    755 O          71.1574   30.1141   28.6718 O.3   708  HOH708      0.0000
    756 O          26.7229   36.5376   82.4144 O.3   709  HOH709      0.0000
    757 O          84.3633   80.9721   73.1063 O.3   710  HOH710      0.0000
    758 O          39.9288   74.5486   37.9799 O.3   711  HOH711      0.0000
    759 O          28.6718   71.1574   30.1141 O.3   712  HOH712      0.0000
    760 O          82.4144   26.7229   36.5376 O.3   713  HOH713      0.0000
    761 O          73.1063   84.3633   80.9721 O.3   714  HOH714      0.0000
    762 O          37.9799   39.9288   74.5486 O.3   715  HOH715      0.0000
    763 O           6.4546   52.3314   62.1461 O.3   716  HOH716      0.0000
    764 O          60.1972   58.7548   17.7116 O.3   717  HOH717      0.0000
    765 O          50.8890   14.3203   48.9402 O.3   718  HOH718      0.0000
    766 O          15.7627    7.8969    4.5057 O.3   719  HOH719      0.0000
    767 O           7.8969    4.5057   15.7627 O.3   720  HOH720      0.0000
    768 O          14.3203   48.9402   50.8890 O.3   721  HOH721      0.0000
    769 O          58.7548   17.7116   60.1972 O.3   722  HOH722      0.0000
    770 O          52.3314   62.1461    6.4546 O.3   723  HOH723      0.0000
    771 O          48.9402   50.8890   14.3203 O.3   724  HOH724      0.0000
    772 O           4.5057   15.7627    7.8969 O.3   725  HOH725      0.0000
    773 O          62.1461    6.4546   52.3314 O.3   726  HOH726      0.0000
    774 O          17.7116   60.1972   58.7548 O.3   727  HOH727      0.0000
    775 O          58.7548   60.1972   17.7116 O.3   728  HOH728      0.0000
    776 O          52.3314    6.4546   62.1461 O.3   729  HOH729      0.0000
    777 O           7.8969   15.7627    4.5057 O.3   730  HOH730      0.0000
    778 O          14.3203   50.8890   48.9402 O.3   731  HOH731      0.0000
    779 O          17.7116   58.7548   60.1972 O.3   732  HOH732      0.0000
    780 O          62.1461   52.3314    6.4546 O.3   733  HOH733      0.0000
    781 O           4.5057    7.8969   15.7627 O.3   734  HOH734      0.0000
    782 O          48.9402   14.3203   50.8890 O.3   735  HOH735      0.0000
    783 O          60.1972   17.7116   58.7548 O.3   736  HOH736      0.0000
    784 O           6.4546   62.1461   52.3314 O.3   737  HOH737      0.0000
    785 O          15.7627    4.5057    7.8969 O.3   738  HOH738      0.0000
    786 O          50.8890   48.9402   14.3203 O.3   739  HOH739      0.0000
    787 O          82.4144   36.5376   26.7229 O.3   740  HOH740      0.0000
    788 O          28.6718   30.1141   71.1574 O.3   741  HOH741      0.0000
    789 O          37.9799   74.5486   39.9288 O.3   742  HOH742      0.0000
    790 O          73.1063   80.9721   84.3633 O.3   743  HOH743      0.0000
    791 O          80.9721   84.3633   73.1063 O.3   744  HOH744      0.0000
    792 O          74.5486   39.9288   37.9799 O.3   745  HOH745      0.0000
    793 O          30.1141   71.1574   28.6718 O.3   746  HOH746      0.0000
    794 O          36.5376   26.7229   82.4144 O.3   747  HOH747      0.0000
    795 O          39.9288   37.9799   74.5486 O.3   748  HOH748      0.0000
    796 O          84.3633   73.1063   80.9721 O.3   749  HOH749      0.0000
    797 O          26.7229   82.4144   36.5376 O.3   750  HOH750      0.0000
    798 O          71.1574   28.6718   30.1141 O.3   751  HOH751      0.0000
    799 O          30.1141   73.1063   26.7229 O.3   752  HOH752      0.0000
    800 O          36.5376   37.9799   71.1574 O.3   753  HOH753      0.0000
    801 O          80.9721   28.6718   39.9288 O.3   754  HOH754      0.0000
    802 O          74.5486   82.4144   84.3633 O.3   755  HOH755      0.0000
    803 O          71.1574   74.5486   73.1063 O.3   756  HOH756      0.0000
    804 O          26.7229   80.9721   37.9799 O.3   757  HOH757      0.0000
    805 O          84.3633   36.5376   28.6718 O.3   758  HOH758      0.0000
    806 O          39.9288   30.1141   82.4144 O.3   759  HOH759      0.0000
    807 O          28.6718   26.7229   74.5486 O.3   760  HOH760      0.0000
    808 O          82.4144   71.1574   80.9721 O.3   761  HOH761      0.0000
    809 O          73.1063   39.9288   36.5376 O.3   762  HOH762      0.0000
    810 O          37.9799   84.3633   30.1141 O.3   763  HOH763      0.0000
    811 O           6.4546    7.8969   17.7116 O.3   764  HOH764      0.0000
    812 O          60.1972   14.3203   62.1461 O.3   765  HOH765      0.0000
    813 O          50.8890   58.7548    4.5057 O.3   766  HOH766      0.0000
    814 O          15.7627   52.3314   48.9402 O.3   767  HOH767      0.0000
    815 O           7.8969   48.9402   60.1972 O.3   768  HOH768      0.0000
    816 O          14.3203    4.5057    6.4546 O.3   769  HOH769      0.0000
    817 O          58.7548   62.1461   15.7627 O.3   770  HOH770      0.0000
    818 O          52.3314   17.7116   50.8890 O.3   771  HOH771      0.0000
    819 O          48.9402    6.4546   58.7548 O.3   772  HOH772      0.0000
    820 O           4.5057   60.1972   52.3314 O.3   773  HOH773      0.0000
    821 O          62.1461   50.8890    7.8969 O.3   774  HOH774      0.0000
    822 O          17.7116   15.7627   14.3203 O.3   775  HOH775      0.0000
    823 O          58.7548   15.7627   62.1461 O.3   776  HOH776      0.0000
    824 O          52.3314   50.8890   17.7116 O.3   777  HOH777      0.0000
    825 O           7.8969   60.1972   48.9402 O.3   778  HOH778      0.0000
    826 O          14.3203    6.4546    4.5057 O.3   779  HOH779      0.0000
    827 O          17.7116   14.3203   15.7627 O.3   780  HOH780      0.0000
    828 O          62.1461    7.8969   50.8890 O.3   781  HOH781      0.0000
    829 O           4.5057   52.3314   60.1972 O.3   782  HOH782      0.0000
    830 O          48.9402   58.7548    6.4546 O.3   783  HOH783      0.0000
    831 O          60.1972   62.1461   14.3203 O.3   784  HOH784      0.0000
    832 O           6.4546   17.7116    7.8969 O.3   785  HOH785      0.0000
    833 O          15.7627   48.9402   52.3314 O.3   786  HOH786      0.0000
    834 O          50.8890    4.5057   58.7548 O.3   787  HOH787      0.0000
    835 O          82.4144   80.9721   71.1574 O.3   788  HOH788      0.0000
    836 O          28.6718   74.5486   26.7229 O.3   789  HOH789      0.0000
    837 O          37.9799   30.1141   84.3633 O.3   790  HOH790      0.0000
    838 O          73.1063   36.5376   39.9288 O.3   791  HOH791      0.0000
    839 O          80.9721   39.9288   28.6718 O.3   792  HOH792      0.0000
    840 O          74.5486   84.3633   82.4144 O.3   793  HOH793      0.0000
    841 O          30.1141   26.7229   73.1063 O.3   794  HOH794      0.0000
    842 O          36.5376   71.1574   37.9799 O.3   795  HOH795      0.0000
    843 O          39.9288   82.4144   30.1141 O.3   796  HOH796      0.0000
    844 O          84.3633   28.6718   36.5376 O.3   797  HOH797      0.0000
    845 O          26.7229   37.9799   80.9721 O.3   798  HOH798      0.0000
    846 O          71.1574   73.1063   74.5486 O.3   799  HOH799      0.0000
    847 O          74.5486   28.6718   26.7229 O.3   800  HOH800      0.0000
    848 O          80.9721   82.4144   71.1574 O.3   801  HOH801      0.0000
    849 O          36.5376   73.1063   39.9288 O.3   802  HOH802      0.0000
    850 O          30.1141   37.9799   84.3633 O.3   803  HOH803      0.0000
    851 O          26.7229   30.1141   73.1063 O.3   804  HOH804      0.0000
    852 O          71.1574   36.5376   37.9799 O.3   805  HOH805      0.0000
    853 O          39.9288   80.9721   28.6718 O.3   806  HOH806      0.0000
    854 O          84.3633   74.5486   82.4144 O.3   807  HOH807      0.0000
    855 O          73.1063   71.1574   74.5486 O.3   808  HOH808      0.0000
    856 O          37.9799   26.7229   80.9721 O.3   809  HOH809      0.0000
    857 O          28.6718   84.3633   36.5376 O.3   810  HOH810      0.0000
    858 O          82.4144   39.9288   30.1141 O.3   811  HOH811      0.0000
    859 O          50.8890   52.3314   17.7116 O.3   812  HOH812      0.0000
    860 O          15.7627   58.7548   62.1461 O.3   813  HOH813      0.0000
    861 O           6.4546   14.3203    4.5057 O.3   814  HOH814      0.0000
    862 O          60.1972    7.8969   48.9402 O.3   815  HOH815      0.0000
    863 O          52.3314    4.5057   60.1972 O.3   816  HOH816      0.0000
    864 O          58.7548   48.9402    6.4546 O.3   817  HOH817      0.0000
    865 O          14.3203   17.7116   15.7627 O.3   818  HOH818      0.0000
    866 O           7.8969   62.1461   50.8890 O.3   819  HOH819      0.0000
    867 O           4.5057   50.8890   58.7548 O.3   820  HOH820      0.0000
    868 O          48.9402   15.7627   52.3314 O.3   821  HOH821      0.0000
    869 O          17.7116    6.4546    7.8969 O.3   822  HOH822      0.0000
    870 O          62.1461   60.1972   14.3203 O.3   823  HOH823      0.0000
    871 O          14.3203   60.1972   62.1461 O.3   824  HOH824      0.0000
    872 O           7.8969    6.4546   17.7116 O.3   825  HOH825      0.0000
    873 O          52.3314   15.7627   48.9402 O.3   826  HOH826      0.0000
    874 O          58.7548   50.8890    4.5057 O.3   827  HOH827      0.0000
    875 O          62.1461   58.7548   15.7627 O.3   828  HOH828      0.0000
    876 O          17.7116   52.3314   50.8890 O.3   829  HOH829      0.0000
    877 O          48.9402    7.8969   60.1972 O.3   830  HOH830      0.0000
    878 O           4.5057   14.3203    6.4546 O.3   831  HOH831      0.0000
    879 O          15.7627   17.7116   14.3203 O.3   832  HOH832      0.0000
    880 O          50.8890   62.1461    7.8969 O.3   833  HOH833      0.0000
    881 O          60.1972    4.5057   52.3314 O.3   834  HOH834      0.0000
    882 O           6.4546   48.9402   58.7548 O.3   835  HOH835      0.0000
    883 O          37.9799   36.5376   71.1574 O.3   836  HOH836      0.0000
    884 O          73.1063   30.1141   26.7229 O.3   837  HOH837      0.0000
    885 O          82.4144   74.5486   84.3633 O.3   838  HOH838      0.0000
    886 O          28.6718   80.9721   39.9288 O.3   839  HOH839      0.0000
    887 O          36.5376   84.3633   28.6718 O.3   840  HOH840      0.0000
    888 O          30.1141   39.9288   82.4144 O.3   841  HOH841      0.0000
    889 O          74.5486   71.1574   73.1063 O.3   842  HOH842      0.0000
    890 O          80.9721   26.7229   37.9799 O.3   843  HOH843      0.0000
    891 O          84.3633   37.9799   30.1141 O.3   844  HOH844      0.0000
    892 O          39.9288   73.1063   36.5376 O.3   845  HOH845      0.0000
    893 O          71.1574   82.4144   80.9721 O.3   846  HOH846      0.0000
    894 O          26.7229   28.6718   74.5486 O.3   847  HOH847      0.0000
    895 O          74.5486   73.1063   71.1574 O.3   848  HOH848      0.0000
    896 O          80.9721   37.9799   26.7229 O.3   849  HOH849      0.0000
    897 O          36.5376   28.6718   84.3633 O.3   850  HOH850      0.0000
    898 O          30.1141   82.4144   39.9288 O.3   851  HOH851      0.0000
    899 O          26.7229   74.5486   28.6718 O.3   852  HOH852      0.0000
    900 O          71.1574   80.9721   82.4144 O.3   853  HOH853      0.0000
    901 O          39.9288   36.5376   73.1063 O.3   854  HOH854      0.0000
    902 O          84.3633   30.1141   37.9799 O.3   855  HOH855      0.0000
    903 O          73.1063   26.7229   30.1141 O.3   856  HOH856      0.0000
    904 O          37.9799   71.1574   36.5376 O.3   857  HOH857      0.0000
    905 O          28.6718   39.9288   80.9721 O.3   858  HOH858      0.0000
    906 O          82.4144   84.3633   74.5486 O.3   859  HOH859      0.0000
    907 O          50.8890    7.8969   62.1461 O.3   860  HOH860      0.0000
    908 O          15.7627   14.3203   17.7116 O.3   861  HOH861      0.0000
    909 O           6.4546   58.7548   48.9402 O.3   862  HOH862      0.0000
    910 O          60.1972   52.3314    4.5057 O.3   863  HOH863      0.0000
    911 O          52.3314   48.9402   15.7627 O.3   864  HOH864      0.0000
    912 O          58.7548    4.5057   50.8890 O.3   865  HOH865      0.0000
    913 O          14.3203   62.1461   60.1972 O.3   866  HOH866      0.0000
    914 O           7.8969   17.7116    6.4546 O.3   867  HOH867      0.0000
    915 O           4.5057    6.4546   14.3203 O.3   868  HOH868      0.0000
    916 O          48.9402   60.1972    7.8969 O.3   869  HOH869      0.0000
    917 O          17.7116   50.8890   52.3314 O.3   870  HOH870      0.0000
    918 O          62.1461   15.7627   58.7548 O.3   871  HOH871      0.0000
    919 O          14.3203   15.7627   17.7116 O.3   872  HOH872      0.0000
    920 O           7.8969   50.8890   62.1461 O.3   873  HOH873      0.0000
    921 O          52.3314   60.1972    4.5057 O.3   874  HOH874      0.0000
    922 O          58.7548    6.4546   48.9402 O.3   875  HOH875      0.0000
    923 O          62.1461   14.3203   60.1972 O.3   876  HOH876      0.0000
    924 O          17.7116    7.8969    6.4546 O.3   877  HOH877      0.0000
    925 O          48.9402   52.3314   15.7627 O.3   878  HOH878      0.0000
    926 O           4.5057   58.7548   50.8890 O.3   879  HOH879      0.0000
    927 O          15.7627   62.1461   58.7548 O.3   880  HOH880      0.0000
    928 O          50.8890   17.7116   52.3314 O.3   881  HOH881      0.0000
    929 O          60.1972   48.9402    7.8969 O.3   882  HOH882      0.0000
    930 O           6.4546    4.5057   14.3203 O.3   883  HOH883      0.0000
    931 O          37.9799   80.9721   26.7229 O.3   884  HOH884      0.0000
    932 O          73.1063   74.5486   71.1574 O.3   885  HOH885      0.0000
    933 O          82.4144   30.1141   39.9288 O.3   886  HOH886      0.0000
    934 O          28.6718   36.5376   84.3633 O.3   887  HOH887      0.0000
    935 O          36.5376   39.9288   73.1063 O.3   888  HOH888      0.0000
    936 O          30.1141   84.3633   37.9799 O.3   889  HOH889      0.0000
    937 O          74.5486   26.7229   28.6718 O.3   890  HOH890      0.0000
    938 O          80.9721   71.1574   82.4144 O.3   891  HOH891      0.0000
    939 O          84.3633   82.4144   74.5486 O.3   892  HOH892      0.0000
    940 O          39.9288   28.6718   80.9721 O.3   893  HOH893      0.0000
    941 O          71.1574   37.9799   36.5376 O.3   894  HOH894      0.0000
    942 O          26.7229   73.1063   30.1141 O.3   895  HOH895      0.0000
    943 O          46.9921   86.7219   28.4985 O.3   896  HOH896      0.0000
    944 O           2.5576   68.7988   82.5877 O.3   897  HOH897      0.0000
    945 O          64.0941   42.2874   38.1532 O.3   898  HOH898      0.0000
    946 O          72.9330   19.6596   24.3643 O.3   899  HOH899      0.0000
    947 O          28.4985   46.9921   86.7219 O.3   900  HOH900      0.0000
    948 O          82.5877    2.5576   68.7988 O.3   901  HOH901      0.0000
    949 O          38.1532   64.0941   42.2874 O.3   902  HOH902      0.0000
    950 O          24.3643   72.9330   19.6596 O.3   903  HOH903      0.0000
    951 O          86.7219   28.4985   46.9921 O.3   904  HOH904      0.0000
    952 O          68.7988   82.5877    2.5576 O.3   905  HOH905      0.0000
    953 O          42.2874   38.1532   64.0941 O.3   906  HOH906      0.0000
    954 O           2.1471   41.8768   60.3705 O.3   907  HOH907      0.0000
    955 O          64.5047   69.2094   15.9360 O.3   908  HOH908      0.0000
    956 O          46.5816   24.7749   50.7158 O.3   909  HOH909      0.0000
    957 O          20.0702   86.3113    6.2813 O.3   910  HOH910      0.0000
    958 O          86.3113    6.2813   20.0702 O.3   911  HOH911      0.0000
    959 O          24.7749   50.7158   46.5816 O.3   912  HOH912      0.0000
    960 O          69.2094   15.9360   64.5047 O.3   913  HOH913      0.0000
    961 O          41.8768   60.3705    2.1471 O.3   914  HOH914      0.0000
    962 O          50.7158   46.5816   24.7749 O.3   915  HOH915      0.0000
    963 O           6.2813   20.0702   86.3113 O.3   916  HOH916      0.0000
    964 O          60.3705    2.1471   41.8768 O.3   917  HOH917      0.0000
    965 O          15.9360   64.5047   69.2094 O.3   918  HOH918      0.0000
    966 O          69.2094   64.5047   15.9360 O.3   919  HOH919      0.0000
    967 O          41.8768    2.1471   60.3705 O.3   920  HOH920      0.0000
    968 O          86.3113   20.0702    6.2813 O.3   921  HOH921      0.0000
    969 O          24.7749   46.5816   50.7158 O.3   922  HOH922      0.0000
    970 O          15.9360   69.2094   64.5047 O.3   923  HOH923      0.0000
    971 O          60.3705   41.8768    2.1471 O.3   924  HOH924      0.0000
    972 O           6.2813   86.3113   20.0702 O.3   925  HOH925      0.0000
    973 O          50.7158   24.7749   46.5816 O.3   926  HOH926      0.0000
    974 O          64.5047   15.9360   69.2094 O.3   927  HOH927      0.0000
    975 O           2.1471   60.3705   41.8768 O.3   928  HOH928      0.0000
    976 O          20.0702    6.2813   86.3113 O.3   929  HOH929      0.0000
    977 O          46.5816   50.7158   24.7749 O.3   930  HOH930      0.0000
    978 O          86.7219   46.9921   28.4985 O.3   931  HOH931      0.0000
    979 O          24.3643   19.6596   72.9330 O.3   932  HOH932      0.0000
    980 O          42.2874   64.0941   38.1532 O.3   933  HOH933      0.0000
    981 O          68.7988    2.5576   82.5877 O.3   934  HOH934      0.0000
    982 O           2.5576   82.5877   68.7988 O.3   935  HOH935      0.0000
    983 O          64.0941   38.1532   42.2874 O.3   936  HOH936      0.0000
    984 O          19.6596   72.9330   24.3643 O.3   937  HOH937      0.0000
    985 O          46.9921   28.4985   86.7219 O.3   938  HOH938      0.0000
    986 O          38.1532   42.2874   64.0941 O.3   939  HOH939      0.0000
    987 O          82.5877   68.7988    2.5576 O.3   940  HOH940      0.0000
    988 O          28.4985   86.7219   46.9921 O.3   941  HOH941      0.0000
    989 O          72.9330   24.3643   19.6596 O.3   942  HOH942      0.0000
    990 O          19.6596   68.7988   28.4985 O.3   943  HOH943      0.0000
    991 O          46.9921   42.2874   72.9330 O.3   944  HOH944      0.0000
    992 O           2.5576   24.3643   38.1532 O.3   945  HOH945      0.0000
    993 O          64.0941   86.7219   82.5877 O.3   946  HOH946      0.0000
    994 O          72.9330   64.0941   68.7988 O.3   947  HOH947      0.0000
    995 O          28.4985    2.5576   42.2874 O.3   948  HOH948      0.0000
    996 O          82.5877   46.9921   24.3643 O.3   949  HOH949      0.0000
    997 O          38.1532   19.6596   86.7219 O.3   950  HOH950      0.0000
    998 O          24.3643   28.4985   64.0941 O.3   951  HOH951      0.0000
    999 O          86.7219   72.9330    2.5576 O.3   952  HOH952      0.0000
   1000 O          68.7988   38.1532   46.9921 O.3   953  HOH953      0.0000
   1001 O          42.2874   82.5877   19.6596 O.3   954  HOH954      0.0000
   1002 O           2.1471   86.3113   15.9360 O.3   955  HOH955      0.0000
   1003 O          64.5047   24.7749   60.3705 O.3   956  HOH956      0.0000
   1004 O          46.5816   69.2094    6.2813 O.3   957  HOH957      0.0000
   1005 O          20.0702   41.8768   50.7158 O.3   958  HOH958      0.0000
   1006 O          86.3113   50.7158   64.5047 O.3   959  HOH959      0.0000
   1007 O          24.7749    6.2813    2.1471 O.3   960  HOH960      0.0000
   1008 O          69.2094   60.3705   20.0702 O.3   961  HOH961      0.0000
   1009 O          41.8768   15.9360   46.5816 O.3   962  HOH962      0.0000
   1010 O          50.7158    2.1471   69.2094 O.3   963  HOH963      0.0000
   1011 O           6.2813   64.5047   41.8768 O.3   964  HOH964      0.0000
   1012 O          60.3705   46.5816   86.3113 O.3   965  HOH965      0.0000
   1013 O          15.9360   20.0702   24.7749 O.3   966  HOH966      0.0000
   1014 O          69.2094   20.0702   60.3705 O.3   967  HOH967      0.0000
   1015 O          41.8768   46.5816   15.9360 O.3   968  HOH968      0.0000
   1016 O          86.3113   64.5047   50.7158 O.3   969  HOH969      0.0000
   1017 O          24.7749    2.1471    6.2813 O.3   970  HOH970      0.0000
   1018 O          15.9360   24.7749   20.0702 O.3   971  HOH971      0.0000
   1019 O          60.3705   86.3113   46.5816 O.3   972  HOH972      0.0000
   1020 O           6.2813   41.8768   64.5047 O.3   973  HOH973      0.0000
   1021 O          50.7158   69.2094    2.1471 O.3   974  HOH974      0.0000
   1022 O          64.5047   60.3705   24.7749 O.3   975  HOH975      0.0000
   1023 O           2.1471   15.9360   86.3113 O.3   976  HOH976      0.0000
   1024 O          20.0702   50.7158   41.8768 O.3   977  HOH977      0.0000
   1025 O          46.5816    6.2813   69.2094 O.3   978  HOH978      0.0000
   1026 O          86.7219    2.5576   72.9330 O.3   979  HOH979      0.0000
   1027 O          24.3643   64.0941   28.4985 O.3   980  HOH980      0.0000
   1028 O          42.2874   19.6596   82.5877 O.3   981  HOH981      0.0000
   1029 O          68.7988   46.9921   38.1532 O.3   982  HOH982      0.0000
   1030 O           2.5576   38.1532   24.3643 O.3   983  HOH983      0.0000
   1031 O          64.0941   82.5877   86.7219 O.3   984  HOH984      0.0000
   1032 O          19.6596   28.4985   68.7988 O.3   985  HOH985      0.0000
   1033 O          46.9921   72.9330   42.2874 O.3   986  HOH986      0.0000
   1034 O          38.1532   86.7219   19.6596 O.3   987  HOH987      0.0000
   1035 O          82.5877   24.3643   46.9921 O.3   988  HOH988      0.0000
   1036 O          28.4985   42.2874    2.5576 O.3   989  HOH989      0.0000
   1037 O          72.9330   68.7988   64.0941 O.3   990  HOH990      0.0000
   1038 O          64.0941   24.3643   28.4985 O.3   991  HOH991      0.0000
   1039 O           2.5576   86.7219   72.9330 O.3   992  HOH992      0.0000
   1040 O          46.9921   68.7988   38.1532 O.3   993  HOH993      0.0000
   1041 O          19.6596   42.2874   82.5877 O.3   994  HOH994      0.0000
   1042 O          28.4985   19.6596   68.7988 O.3   995  HOH995      0.0000
   1043 O          72.9330   46.9921   42.2874 O.3   996  HOH996      0.0000
   1044 O          38.1532    2.5576   24.3643 O.3   997  HOH997      0.0000
   1045 O          82.5877   64.0941   86.7219 O.3   998  HOH998      0.0000
   1046 O          68.7988   72.9330   64.0941 O.3   999  HOH999      0.0000
   1047 O          42.2874   28.4985    2.5576 O.3   1000  HOH1000     0.0000
   1048 O          24.3643   82.5877   46.9921 O.3   1001  HOH1001     0.0000
   1049 O          86.7219   38.1532   19.6596 O.3   1002  HOH1002     0.0000
   1050 O          46.5816   41.8768   15.9360 O.3   1003  HOH1003     0.0000
   1051 O          20.0702   69.2094   60.3705 O.3   1004  HOH1004     0.0000
   1052 O           2.1471   24.7749    6.2813 O.3   1005  HOH1005     0.0000
   1053 O          64.5047   86.3113   50.7158 O.3   1006  HOH1006     0.0000
   1054 O          41.8768    6.2813   64.5047 O.3   1007  HOH1007     0.0000
   1055 O          69.2094   50.7158    2.1471 O.3   1008  HOH1008     0.0000
   1056 O          24.7749   15.9360   20.0702 O.3   1009  HOH1009     0.0000
   1057 O          86.3113   60.3705   46.5816 O.3   1010  HOH1010     0.0000
   1058 O           6.2813   46.5816   69.2094 O.3   1011  HOH1011     0.0000
   1059 O          50.7158   20.0702   41.8768 O.3   1012  HOH1012     0.0000
   1060 O          15.9360    2.1471   86.3113 O.3   1013  HOH1013     0.0000
   1061 O          60.3705   64.5047   24.7749 O.3   1014  HOH1014     0.0000
   1062 O          24.7749   64.5047   60.3705 O.3   1015  HOH1015     0.0000
   1063 O          86.3113    2.1471   15.9360 O.3   1016  HOH1016     0.0000
   1064 O          41.8768   20.0702   50.7158 O.3   1017  HOH1017     0.0000
   1065 O          69.2094   46.5816    6.2813 O.3   1018  HOH1018     0.0000
   1066 O          60.3705   69.2094   20.0702 O.3   1019  HOH1019     0.0000
   1067 O          15.9360   41.8768   46.5816 O.3   1020  HOH1020     0.0000
   1068 O          50.7158   86.3113   64.5047 O.3   1021  HOH1021     0.0000
   1069 O           6.2813   24.7749    2.1471 O.3   1022  HOH1022     0.0000
   1070 O          20.0702   15.9360   24.7749 O.3   1023  HOH1023     0.0000
   1071 O          46.5816   60.3705   86.3113 O.3   1024  HOH1024     0.0000
   1072 O          64.5047    6.2813   41.8768 O.3   1025  HOH1025     0.0000
   1073 O           2.1471   50.7158   69.2094 O.3   1026  HOH1026     0.0000
   1074 O          42.2874   46.9921   72.9330 O.3   1027  HOH1027     0.0000
   1075 O          68.7988   19.6596   28.4985 O.3   1028  HOH1028     0.0000
   1076 O          86.7219   64.0941   82.5877 O.3   1029  HOH1029     0.0000
   1077 O          24.3643    2.5576   38.1532 O.3   1030  HOH1030     0.0000
   1078 O          46.9921   82.5877   24.3643 O.3   1031  HOH1031     0.0000
   1079 O          19.6596   38.1532   86.7219 O.3   1032  HOH1032     0.0000
   1080 O          64.0941   72.9330   68.7988 O.3   1033  HOH1033     0.0000
   1081 O           2.5576   28.4985   42.2874 O.3   1034  HOH1034     0.0000
   1082 O          82.5877   42.2874   19.6596 O.3   1035  HOH1035     0.0000
   1083 O          38.1532   68.7988   46.9921 O.3   1036  HOH1036     0.0000
   1084 O          72.9330   86.7219    2.5576 O.3   1037  HOH1037     0.0000
   1085 O          28.4985   24.3643   64.0941 O.3   1038  HOH1038     0.0000
   1086 O          64.0941   68.7988   72.9330 O.3   1039  HOH1039     0.0000
   1087 O           2.5576   42.2874   28.4985 O.3   1040  HOH1040     0.0000
   1088 O          46.9921   24.3643   82.5877 O.3   1041  HOH1041     0.0000
   1089 O          19.6596   86.7219   38.1532 O.3   1042  HOH1042     0.0000
   1090 O          28.4985   64.0941   24.3643 O.3   1043  HOH1043     0.0000
   1091 O          72.9330    2.5576   86.7219 O.3   1044  HOH1044     0.0000
   1092 O          38.1532   46.9921   68.7988 O.3   1045  HOH1045     0.0000
   1093 O          82.5877   19.6596   42.2874 O.3   1046  HOH1046     0.0000
   1094 O          68.7988   28.4985   19.6596 O.3   1047  HOH1047     0.0000
   1095 O          42.2874   72.9330   46.9921 O.3   1048  HOH1048     0.0000
   1096 O          24.3643   38.1532    2.5576 O.3   1049  HOH1049     0.0000
   1097 O          86.7219   82.5877   64.0941 O.3   1050  HOH1050     0.0000
   1098 O          46.5816   86.3113   60.3705 O.3   1051  HOH1051     0.0000
   1099 O          20.0702   24.7749   15.9360 O.3   1052  HOH1052     0.0000
   1100 O           2.1471   69.2094   50.7158 O.3   1053  HOH1053     0.0000
   1101 O          64.5047   41.8768    6.2813 O.3   1054  HOH1054     0.0000
   1102 O          41.8768   50.7158   20.0702 O.3   1055  HOH1055     0.0000
   1103 O          69.2094    6.2813   46.5816 O.3   1056  HOH1056     0.0000
   1104 O          24.7749   60.3705   64.5047 O.3   1057  HOH1057     0.0000
   1105 O          86.3113   15.9360    2.1471 O.3   1058  HOH1058     0.0000
   1106 O           6.2813    2.1471   24.7749 O.3   1059  HOH1059     0.0000
   1107 O          50.7158   64.5047   86.3113 O.3   1060  HOH1060     0.0000
   1108 O          15.9360   46.5816   41.8768 O.3   1061  HOH1061     0.0000
   1109 O          60.3705   20.0702   69.2094 O.3   1062  HOH1062     0.0000
   1110 O          24.7749   20.0702   15.9360 O.3   1063  HOH1063     0.0000
   1111 O          86.3113   46.5816   60.3705 O.3   1064  HOH1064     0.0000
   1112 O          41.8768   64.5047    6.2813 O.3   1065  HOH1065     0.0000
   1113 O          69.2094    2.1471   50.7158 O.3   1066  HOH1066     0.0000
   1114 O          60.3705   24.7749   64.5047 O.3   1067  HOH1067     0.0000
   1115 O          15.9360   86.3113    2.1471 O.3   1068  HOH1068     0.0000
   1116 O          50.7158   41.8768   20.0702 O.3   1069  HOH1069     0.0000
   1117 O           6.2813   69.2094   46.5816 O.3   1070  HOH1070     0.0000
   1118 O          20.0702   60.3705   69.2094 O.3   1071  HOH1071     0.0000
   1119 O          46.5816   15.9360   41.8768 O.3   1072  HOH1072     0.0000
   1120 O          64.5047   50.7158   86.3113 O.3   1073  HOH1073     0.0000
   1121 O           2.1471    6.2813   24.7749 O.3   1074  HOH1074     0.0000
   1122 O          42.2874    2.5576   28.4985 O.3   1075  HOH1075     0.0000
   1123 O          68.7988   64.0941   72.9330 O.3   1076  HOH1076     0.0000
   1124 O          86.7219   19.6596   38.1532 O.3   1077  HOH1077     0.0000
   1125 O          24.3643   46.9921   82.5877 O.3   1078  HOH1078     0.0000
   1126 O          46.9921   38.1532   68.7988 O.3   1079  HOH1079     0.0000
   1127 O          19.6596   82.5877   42.2874 O.3   1080  HOH1080     0.0000
   1128 O          64.0941   28.4985   24.3643 O.3   1081  HOH1081     0.0000
   1129 O           2.5576   72.9330   86.7219 O.3   1082  HOH1082     0.0000
   1130 O          82.5877   86.7219   64.0941 O.3   1083  HOH1083     0.0000
   1131 O          38.1532   24.3643    2.5576 O.3   1084  HOH1084     0.0000
   1132 O          72.9330   42.2874   46.9921 O.3   1085  HOH1085     0.0000
   1133 O          28.4985   68.7988   19.6596 O.3   1086  HOH1086     0.0000
   1134 O          47.3112   86.9183   26.2368 O.3   1087  HOH1087     0.0000
   1135 O           2.8767   68.6024   84.8494 O.3   1088  HOH1088     0.0000
   1136 O          63.7751   42.4838   40.4150 O.3   1089  HOH1089     0.0000
   1137 O          70.6713   19.3406   24.1679 O.3   1090  HOH1090     0.0000
   1138 O          26.2368   47.3112   86.9183 O.3   1091  HOH1091     0.0000
   1139 O          84.8494    2.8767   68.6024 O.3   1092  HOH1092     0.0000
   1140 O          40.4150   63.7751   42.4838 O.3   1093  HOH1093     0.0000
   1141 O          24.1679   70.6713   19.3406 O.3   1094  HOH1094     0.0000
   1142 O          86.9183   26.2368   47.3112 O.3   1095  HOH1095     0.0000
   1143 O          68.6024   84.8494    2.8767 O.3   1096  HOH1096     0.0000
   1144 O          42.4838   40.4150   63.7751 O.3   1097  HOH1097     0.0000
   1145 O           1.9507   41.5578   62.6322 O.3   1098  HOH1098     0.0000
   1146 O          64.7011   69.5284   18.1977 O.3   1099  HOH1099     0.0000
   1147 O          46.3852   25.0939   48.4540 O.3   1100  HOH1100     0.0000
   1148 O          20.2666   85.9923    4.0195 O.3   1101  HOH1101     0.0000
   1149 O          85.9923    4.0195   20.2666 O.3   1102  HOH1102     0.0000
   1150 O          25.0939   48.4540   46.3852 O.3   1103  HOH1103     0.0000
   1151 O          69.5284   18.1977   64.7011 O.3   1104  HOH1104     0.0000
   1152 O          41.5578   62.6322    1.9507 O.3   1105  HOH1105     0.0000
   1153 O          48.4540   46.3852   25.0939 O.3   1106  HOH1106     0.0000
   1154 O           4.0195   20.2666   85.9923 O.3   1107  HOH1107     0.0000
   1155 O          62.6322    1.9507   41.5578 O.3   1108  HOH1108     0.0000
   1156 O          18.1977   64.7011   69.5284 O.3   1109  HOH1109     0.0000
   1157 O          69.5284   64.7011   18.1977 O.3   1110  HOH1110     0.0000
   1158 O          41.5578    1.9507   62.6322 O.3   1111  HOH1111     0.0000
   1159 O          85.9923   20.2666    4.0195 O.3   1112  HOH1112     0.0000
   1160 O          25.0939   46.3852   48.4540 O.3   1113  HOH1113     0.0000
   1161 O          18.1977   69.5284   64.7011 O.3   1114  HOH1114     0.0000
   1162 O          62.6322   41.5578    1.9507 O.3   1115  HOH1115     0.0000
   1163 O           4.0195   85.9923   20.2666 O.3   1116  HOH1116     0.0000
   1164 O          48.4540   25.0939   46.3852 O.3   1117  HOH1117     0.0000
   1165 O          64.7011   18.1977   69.5284 O.3   1118  HOH1118     0.0000
   1166 O           1.9507   62.6322   41.5578 O.3   1119  HOH1119     0.0000
   1167 O          20.2666    4.0195   85.9923 O.3   1120  HOH1120     0.0000
   1168 O          46.3852   48.4540   25.0939 O.3   1121  HOH1121     0.0000
   1169 O          86.9183   47.3112   26.2368 O.3   1122  HOH1122     0.0000
   1170 O          24.1679   19.3406   70.6713 O.3   1123  HOH1123     0.0000
   1171 O          42.4838   63.7751   40.4150 O.3   1124  HOH1124     0.0000
   1172 O          68.6024    2.8767   84.8494 O.3   1125  HOH1125     0.0000
   1173 O           2.8767   84.8494   68.6024 O.3   1126  HOH1126     0.0000
   1174 O          63.7751   40.4150   42.4838 O.3   1127  HOH1127     0.0000
   1175 O          19.3406   70.6713   24.1679 O.3   1128  HOH1128     0.0000
   1176 O          47.3112   26.2368   86.9183 O.3   1129  HOH1129     0.0000
   1177 O          40.4150   42.4838   63.7751 O.3   1130  HOH1130     0.0000
   1178 O          84.8494   68.6024    2.8767 O.3   1131  HOH1131     0.0000
   1179 O          26.2368   86.9183   47.3112 O.3   1132  HOH1132     0.0000
   1180 O          70.6713   24.1679   19.3406 O.3   1133  HOH1133     0.0000
   1181 O          19.3406   68.6024   26.2368 O.3   1134  HOH1134     0.0000
   1182 O          47.3112   42.4838   70.6713 O.3   1135  HOH1135     0.0000
   1183 O           2.8767   24.1679   40.4150 O.3   1136  HOH1136     0.0000
   1184 O          63.7751   86.9183   84.8494 O.3   1137  HOH1137     0.0000
   1185 O          70.6713   63.7751   68.6024 O.3   1138  HOH1138     0.0000
   1186 O          26.2368    2.8767   42.4838 O.3   1139  HOH1139     0.0000
   1187 O          84.8494   47.3112   24.1679 O.3   1140  HOH1140     0.0000
   1188 O          40.4150   19.3406   86.9183 O.3   1141  HOH1141     0.0000
   1189 O          24.1679   26.2368   63.7751 O.3   1142  HOH1142     0.0000
   1190 O          86.9183   70.6713    2.8767 O.3   1143  HOH1143     0.0000
   1191 O          68.6024   40.4150   47.3112 O.3   1144  HOH1144     0.0000
   1192 O          42.4838   84.8494   19.3406 O.3   1145  HOH1145     0.0000
   1193 O           1.9507   85.9923   18.1977 O.3   1146  HOH1146     0.0000
   1194 O          64.7011   25.0939   62.6322 O.3   1147  HOH1147     0.0000
   1195 O          46.3852   69.5284    4.0195 O.3   1148  HOH1148     0.0000
   1196 O          20.2666   41.5578   48.4540 O.3   1149  HOH1149     0.0000
   1197 O          85.9923   48.4540   64.7011 O.3   1150  HOH1150     0.0000
   1198 O          25.0939    4.0195    1.9507 O.3   1151  HOH1151     0.0000
   1199 O          69.5284   62.6322   20.2666 O.3   1152  HOH1152     0.0000
   1200 O          41.5578   18.1977   46.3852 O.3   1153  HOH1153     0.0000
   1201 O          48.4540    1.9507   69.5284 O.3   1154  HOH1154     0.0000
   1202 O           4.0195   64.7011   41.5578 O.3   1155  HOH1155     0.0000
   1203 O          62.6322   46.3852   85.9923 O.3   1156  HOH1156     0.0000
   1204 O          18.1977   20.2666   25.0939 O.3   1157  HOH1157     0.0000
   1205 O          69.5284   20.2666   62.6322 O.3   1158  HOH1158     0.0000
   1206 O          41.5578   46.3852   18.1977 O.3   1159  HOH1159     0.0000
   1207 O          85.9923   64.7011   48.4540 O.3   1160  HOH1160     0.0000
   1208 O          25.0939    1.9507    4.0195 O.3   1161  HOH1161     0.0000
   1209 O          18.1977   25.0939   20.2666 O.3   1162  HOH1162     0.0000
   1210 O          62.6322   85.9923   46.3852 O.3   1163  HOH1163     0.0000
   1211 O           4.0195   41.5578   64.7011 O.3   1164  HOH1164     0.0000
   1212 O          48.4540   69.5284    1.9507 O.3   1165  HOH1165     0.0000
   1213 O          64.7011   62.6322   25.0939 O.3   1166  HOH1166     0.0000
   1214 O           1.9507   18.1977   85.9923 O.3   1167  HOH1167     0.0000
   1215 O          20.2666   48.4540   41.5578 O.3   1168  HOH1168     0.0000
   1216 O          46.3852    4.0195   69.5284 O.3   1169  HOH1169     0.0000
   1217 O          86.9183    2.8767   70.6713 O.3   1170  HOH1170     0.0000
   1218 O          24.1679   63.7751   26.2368 O.3   1171  HOH1171     0.0000
   1219 O          42.4838   19.3406   84.8494 O.3   1172  HOH1172     0.0000
   1220 O          68.6024   47.3112   40.4150 O.3   1173  HOH1173     0.0000
   1221 O           2.8767   40.4150   24.1679 O.3   1174  HOH1174     0.0000
   1222 O          63.7751   84.8494   86.9183 O.3   1175  HOH1175     0.0000
   1223 O          19.3406   26.2368   68.6024 O.3   1176  HOH1176     0.0000
   1224 O          47.3112   70.6713   42.4838 O.3   1177  HOH1177     0.0000
   1225 O          40.4150   86.9183   19.3406 O.3   1178  HOH1178     0.0000
   1226 O          84.8494   24.1679   47.3112 O.3   1179  HOH1179     0.0000
   1227 O          26.2368   42.4838    2.8767 O.3   1180  HOH1180     0.0000
   1228 O          70.6713   68.6024   63.7751 O.3   1181  HOH1181     0.0000
   1229 O          63.7751   24.1679   26.2368 O.3   1182  HOH1182     0.0000
   1230 O           2.8767   86.9183   70.6713 O.3   1183  HOH1183     0.0000
   1231 O          47.3112   68.6024   40.4150 O.3   1184  HOH1184     0.0000
   1232 O          19.3406   42.4838   84.8494 O.3   1185  HOH1185     0.0000
   1233 O          26.2368   19.3406   68.6024 O.3   1186  HOH1186     0.0000
   1234 O          70.6713   47.3112   42.4838 O.3   1187  HOH1187     0.0000
   1235 O          40.4150    2.8767   24.1679 O.3   1188  HOH1188     0.0000
   1236 O          84.8494   63.7751   86.9183 O.3   1189  HOH1189     0.0000
   1237 O          68.6024   70.6713   63.7751 O.3   1190  HOH1190     0.0000
   1238 O          42.4838   26.2368    2.8767 O.3   1191  HOH1191     0.0000
   1239 O          24.1679   84.8494   47.3112 O.3   1192  HOH1192     0.0000
   1240 O          86.9183   40.4150   19.3406 O.3   1193  HOH1193     0.0000
   1241 O          46.3852   41.5578   18.1977 O.3   1194  HOH1194     0.0000
   1242 O          20.2666   69.5284   62.6322 O.3   1195  HOH1195     0.0000
   1243 O           1.9507   25.0939    4.0195 O.3   1196  HOH1196     0.0000
   1244 O          64.7011   85.9923   48.4540 O.3   1197  HOH1197     0.0000
   1245 O          41.5578    4.0195   64.7011 O.3   1198  HOH1198     0.0000
   1246 O          69.5284   48.4540    1.9507 O.3   1199  HOH1199     0.0000
   1247 O          25.0939   18.1977   20.2666 O.3   1200  HOH1200     0.0000
   1248 O          85.9923   62.6322   46.3852 O.3   1201  HOH1201     0.0000
   1249 O           4.0195   46.3852   69.5284 O.3   1202  HOH1202     0.0000
   1250 O          48.4540   20.2666   41.5578 O.3   1203  HOH1203     0.0000
   1251 O          18.1977    1.9507   85.9923 O.3   1204  HOH1204     0.0000
   1252 O          62.6322   64.7011   25.0939 O.3   1205  HOH1205     0.0000
   1253 O          25.0939   64.7011   62.6322 O.3   1206  HOH1206     0.0000
   1254 O          85.9923    1.9507   18.1977 O.3   1207  HOH1207     0.0000
   1255 O          41.5578   20.2666   48.4540 O.3   1208  HOH1208     0.0000
   1256 O          69.5284   46.3852    4.0195 O.3   1209  HOH1209     0.0000
   1257 O          62.6322   69.5284   20.2666 O.3   1210  HOH1210     0.0000
   1258 O          18.1977   41.5578   46.3852 O.3   1211  HOH1211     0.0000
   1259 O          48.4540   85.9923   64.7011 O.3   1212  HOH1212     0.0000
   1260 O           4.0195   25.0939    1.9507 O.3   1213  HOH1213     0.0000
   1261 O          20.2666   18.1977   25.0939 O.3   1214  HOH1214     0.0000
   1262 O          46.3852   62.6322   85.9923 O.3   1215  HOH1215     0.0000
   1263 O          64.7011    4.0195   41.5578 O.3   1216  HOH1216     0.0000
   1264 O           1.9507   48.4540   69.5284 O.3   1217  HOH1217     0.0000
   1265 O          42.4838   47.3112   70.6713 O.3   1218  HOH1218     0.0000
   1266 O          68.6024   19.3406   26.2368 O.3   1219  HOH1219     0.0000
   1267 O          86.9183   63.7751   84.8494 O.3   1220  HOH1220     0.0000
   1268 O          24.1679    2.8767   40.4150 O.3   1221  HOH1221     0.0000
   1269 O          47.3112   84.8494   24.1679 O.3   1222  HOH1222     0.0000
   1270 O          19.3406   40.4150   86.9183 O.3   1223  HOH1223     0.0000
   1271 O          63.7751   70.6713   68.6024 O.3   1224  HOH1224     0.0000
   1272 O           2.8767   26.2368   42.4838 O.3   1225  HOH1225     0.0000
   1273 O          84.8494   42.4838   19.3406 O.3   1226  HOH1226     0.0000
   1274 O          40.4150   68.6024   47.3112 O.3   1227  HOH1227     0.0000
   1275 O          70.6713   86.9183    2.8767 O.3   1228  HOH1228     0.0000
   1276 O          26.2368   24.1679   63.7751 O.3   1229  HOH1229     0.0000
   1277 O          63.7751   68.6024   70.6713 O.3   1230  HOH1230     0.0000
   1278 O           2.8767   42.4838   26.2368 O.3   1231  HOH1231     0.0000
   1279 O          47.3112   24.1679   84.8494 O.3   1232  HOH1232     0.0000
   1280 O          19.3406   86.9183   40.4150 O.3   1233  HOH1233     0.0000
   1281 O          26.2368   63.7751   24.1679 O.3   1234  HOH1234     0.0000
   1282 O          70.6713    2.8767   86.9183 O.3   1235  HOH1235     0.0000
   1283 O          40.4150   47.3112   68.6024 O.3   1236  HOH1236     0.0000
   1284 O          84.8494   19.3406   42.4838 O.3   1237  HOH1237     0.0000
   1285 O          68.6024   26.2368   19.3406 O.3   1238  HOH1238     0.0000
   1286 O          42.4838   70.6713   47.3112 O.3   1239  HOH1239     0.0000
   1287 O          24.1679   40.4150    2.8767 O.3   1240  HOH1240     0.0000
   1288 O          86.9183   84.8494   63.7751 O.3   1241  HOH1241     0.0000
   1289 O          46.3852   85.9923   62.6322 O.3   1242  HOH1242     0.0000
   1290 O          20.2666   25.0939   18.1977 O.3   1243  HOH1243     0.0000
   1291 O           1.9507   69.5284   48.4540 O.3   1244  HOH1244     0.0000
   1292 O          64.7011   41.5578    4.0195 O.3   1245  HOH1245     0.0000
   1293 O          41.5578   48.4540   20.2666 O.3   1246  HOH1246     0.0000
   1294 O          69.5284    4.0195   46.3852 O.3   1247  HOH1247     0.0000
   1295 O          25.0939   62.6322   64.7011 O.3   1248  HOH1248     0.0000
   1296 O          85.9923   18.1977    1.9507 O.3   1249  HOH1249     0.0000
   1297 O           4.0195    1.9507   25.0939 O.3   1250  HOH1250     0.0000
   1298 O          48.4540   64.7011   85.9923 O.3   1251  HOH1251     0.0000
   1299 O          18.1977   46.3852   41.5578 O.3   1252  HOH1252     0.0000
   1300 O          62.6322   20.2666   69.5284 O.3   1253  HOH1253     0.0000
   1301 O          25.0939   20.2666   18.1977 O.3   1254  HOH1254     0.0000
   1302 O          85.9923   46.3852   62.6322 O.3   1255  HOH1255     0.0000
   1303 O          41.5578   64.7011    4.0195 O.3   1256  HOH1256     0.0000
   1304 O          69.5284    1.9507   48.4540 O.3   1257  HOH1257     0.0000
   1305 O          62.6322   25.0939   64.7011 O.3   1258  HOH1258     0.0000
   1306 O          18.1977   85.9923    1.9507 O.3   1259  HOH1259     0.0000
   1307 O          48.4540   41.5578   20.2666 O.3   1260  HOH1260     0.0000
   1308 O           4.0195   69.5284   46.3852 O.3   1261  HOH1261     0.0000
   1309 O          20.2666   62.6322   69.5284 O.3   1262  HOH1262     0.0000
   1310 O          46.3852   18.1977   41.5578 O.3   1263  HOH1263     0.0000
   1311 O          64.7011   48.4540   85.9923 O.3   1264  HOH1264     0.0000
   1312 O           1.9507    4.0195   25.0939 O.3   1265  HOH1265     0.0000
   1313 O          42.4838    2.8767   26.2368 O.3   1266  HOH1266     0.0000
   1314 O          68.6024   63.7751   70.6713 O.3   1267  HOH1267     0.0000
   1315 O          86.9183   19.3406   40.4150 O.3   1268  HOH1268     0.0000
   1316 O          24.1679   47.3112   84.8494 O.3   1269  HOH1269     0.0000
   1317 O          47.3112   40.4150   68.6024 O.3   1270  HOH1270     0.0000
   1318 O          19.3406   84.8494   42.4838 O.3   1271  HOH1271     0.0000
   1319 O          63.7751   26.2368   24.1679 O.3   1272  HOH1272     0.0000
   1320 O           2.8767   70.6713   86.9183 O.3   1273  HOH1273     0.0000
   1321 O          84.8494   86.9183   63.7751 O.3   1274  HOH1274     0.0000
   1322 O          40.4150   24.1679    2.8767 O.3   1275  HOH1275     0.0000
   1323 O          70.6713   42.4838   47.3112 O.3   1276  HOH1276     0.0000
   1324 O          26.2368   68.6024   19.3406 O.3   1277  HOH1277     0.0000
   1325 O          59.8079   28.8282   87.1307 O.3   1278  HOH1278     0.0000
   1326 O          15.3734   37.8235   23.9555 O.3   1279  HOH1279     0.0000
   1327 O          51.2783   73.2627   68.3900 O.3   1280  HOH1280     0.0000
   1328 O          42.6962    6.8438   82.2580 O.3   1281  HOH1281     0.0000
   1329 O          87.1307   59.8079   28.8282 O.3   1282  HOH1282     0.0000
   1330 O          23.9555   15.3734   37.8235 O.3   1283  HOH1283     0.0000
   1331 O          68.3900   51.2783   73.2627 O.3   1284  HOH1284     0.0000
   1332 O          82.2580   42.6962    6.8438 O.3   1285  HOH1285     0.0000
   1333 O          28.8282   87.1307   59.8079 O.3   1286  HOH1286     0.0000
   1334 O          37.8235   23.9555   15.3734 O.3   1287  HOH1287     0.0000
   1335 O          73.2627   68.3900   51.2783 O.3   1288  HOH1288     0.0000
   1336 O          60.0408   29.0610    1.7383 O.3   1289  HOH1289     0.0000
   1337 O           6.6110   82.0252   46.1728 O.3   1290  HOH1290     0.0000
   1338 O          15.6063   37.5907   20.4790 O.3   1291  HOH1291     0.0000
   1339 O          51.0455   73.4955   64.9135 O.3   1292  HOH1292     0.0000
   1340 O          73.4955   64.9135   51.0455 O.3   1293  HOH1293     0.0000
   1341 O          37.5907   20.4790   15.6063 O.3   1294  HOH1294     0.0000
   1342 O          82.0252   46.1728    6.6110 O.3   1295  HOH1295     0.0000
   1343 O          29.0610    1.7383   60.0408 O.3   1296  HOH1296     0.0000
   1344 O          20.4790   15.6063   37.5907 O.3   1297  HOH1297     0.0000
   1345 O          64.9135   51.0455   73.4955 O.3   1298  HOH1298     0.0000
   1346 O           1.7383   60.0408   29.0610 O.3   1299  HOH1299     0.0000
   1347 O          46.1728    6.6110   82.0252 O.3   1300  HOH1300     0.0000
   1348 O          82.0252    6.6110   46.1728 O.3   1301  HOH1301     0.0000
   1349 O          29.0610   60.0408    1.7383 O.3   1302  HOH1302     0.0000
   1350 O          73.4955   51.0455   64.9135 O.3   1303  HOH1303     0.0000
   1351 O          37.5907   15.6063   20.4790 O.3   1304  HOH1304     0.0000
   1352 O          46.1728   82.0252    6.6110 O.3   1305  HOH1305     0.0000
   1353 O           1.7383   29.0610   60.0408 O.3   1306  HOH1306     0.0000
   1354 O          64.9135   73.4955   51.0455 O.3   1307  HOH1307     0.0000
   1355 O          20.4790   37.5907   15.6063 O.3   1308  HOH1308     0.0000
   1356 O           6.6110   46.1728   82.0252 O.3   1309  HOH1309     0.0000
   1357 O          60.0408    1.7383   29.0610 O.3   1310  HOH1310     0.0000
   1358 O          51.0455   64.9135   73.4955 O.3   1311  HOH1311     0.0000
   1359 O          15.6063   20.4790   37.5907 O.3   1312  HOH1312     0.0000
   1360 O          28.8282   59.8079   87.1307 O.3   1313  HOH1313     0.0000
   1361 O          82.2580    6.8438   42.6962 O.3   1314  HOH1314     0.0000
   1362 O          73.2627   51.2783   68.3900 O.3   1315  HOH1315     0.0000
   1363 O          37.8235   15.3734   23.9555 O.3   1316  HOH1316     0.0000
   1364 O          15.3734   23.9555   37.8235 O.3   1317  HOH1317     0.0000
   1365 O          51.2783   68.3900   73.2627 O.3   1318  HOH1318     0.0000
   1366 O           6.8438   42.6962   82.2580 O.3   1319  HOH1319     0.0000
   1367 O          59.8079   87.1307   28.8282 O.3   1320  HOH1320     0.0000
   1368 O          68.3900   73.2627   51.2783 O.3   1321  HOH1321     0.0000
   1369 O          23.9555   37.8235   15.3734 O.3   1322  HOH1322     0.0000
   1370 O          87.1307   28.8282   59.8079 O.3   1323  HOH1323     0.0000
   1371 O          42.6962   82.2580    6.8438 O.3   1324  HOH1324     0.0000
   1372 O           6.8438   37.8235   87.1307 O.3   1325  HOH1325     0.0000
   1373 O          59.8079   73.2627   42.6962 O.3   1326  HOH1326     0.0000
   1374 O          15.3734   82.2580   68.3900 O.3   1327  HOH1327     0.0000
   1375 O          51.2783   28.8282   23.9555 O.3   1328  HOH1328     0.0000
   1376 O          42.6962   51.2783   37.8235 O.3   1329  HOH1329     0.0000
   1377 O          87.1307   15.3734   73.2627 O.3   1330  HOH1330     0.0000
   1378 O          23.9555   59.8079   82.2580 O.3   1331  HOH1331     0.0000
   1379 O          68.3900    6.8438   28.8282 O.3   1332  HOH1332     0.0000
   1380 O          82.2580   87.1307   51.2783 O.3   1333  HOH1333     0.0000
   1381 O          28.8282   42.6962   15.3734 O.3   1334  HOH1334     0.0000
   1382 O          37.8235   68.3900   59.8079 O.3   1335  HOH1335     0.0000
   1383 O          73.2627   23.9555    6.8438 O.3   1336  HOH1336     0.0000
   1384 O          60.0408   73.4955   46.1728 O.3   1337  HOH1337     0.0000
   1385 O           6.6110   37.5907    1.7383 O.3   1338  HOH1338     0.0000
   1386 O          15.6063   82.0252   64.9135 O.3   1339  HOH1339     0.0000
   1387 O          51.0455   29.0610   20.4790 O.3   1340  HOH1340     0.0000
   1388 O          73.4955   20.4790    6.6110 O.3   1341  HOH1341     0.0000
   1389 O          37.5907   64.9135   60.0408 O.3   1342  HOH1342     0.0000
   1390 O          82.0252    1.7383   51.0455 O.3   1343  HOH1343     0.0000
   1391 O          29.0610   46.1728   15.6063 O.3   1344  HOH1344     0.0000
   1392 O          20.4790   60.0408   82.0252 O.3   1345  HOH1345     0.0000
   1393 O          64.9135    6.6110   29.0610 O.3   1346  HOH1346     0.0000
   1394 O           1.7383   15.6063   73.4955 O.3   1347  HOH1347     0.0000
   1395 O          46.1728   51.0455   37.5907 O.3   1348  HOH1348     0.0000
   1396 O          82.0252   51.0455    1.7383 O.3   1349  HOH1349     0.0000
   1397 O          29.0610   15.6063   46.1728 O.3   1350  HOH1350     0.0000
   1398 O          73.4955    6.6110   20.4790 O.3   1351  HOH1351     0.0000
   1399 O          37.5907   60.0408   64.9135 O.3   1352  HOH1352     0.0000
   1400 O          46.1728   37.5907   51.0455 O.3   1353  HOH1353     0.0000
   1401 O           1.7383   73.4955   15.6063 O.3   1354  HOH1354     0.0000
   1402 O          64.9135   29.0610    6.6110 O.3   1355  HOH1355     0.0000
   1403 O          20.4790   82.0252   60.0408 O.3   1356  HOH1356     0.0000
   1404 O           6.6110    1.7383   37.5907 O.3   1357  HOH1357     0.0000
   1405 O          60.0408   46.1728   73.4955 O.3   1358  HOH1358     0.0000
   1406 O          51.0455   20.4790   29.0610 O.3   1359  HOH1359     0.0000
   1407 O          15.6063   64.9135   82.0252 O.3   1360  HOH1360     0.0000
   1408 O          28.8282   15.3734   42.6962 O.3   1361  HOH1361     0.0000
   1409 O          82.2580   51.2783   87.1307 O.3   1362  HOH1362     0.0000
   1410 O          73.2627    6.8438   23.9555 O.3   1363  HOH1363     0.0000
   1411 O          37.8235   59.8079   68.3900 O.3   1364  HOH1364     0.0000
   1412 O          15.3734   68.3900   82.2580 O.3   1365  HOH1365     0.0000
   1413 O          51.2783   23.9555   28.8282 O.3   1366  HOH1366     0.0000
   1414 O           6.8438   87.1307   37.8235 O.3   1367  HOH1367     0.0000
   1415 O          59.8079   42.6962   73.2627 O.3   1368  HOH1368     0.0000
   1416 O          68.3900   28.8282    6.8438 O.3   1369  HOH1369     0.0000
   1417 O          23.9555   82.2580   59.8079 O.3   1370  HOH1370     0.0000
   1418 O          87.1307   73.2627   15.3734 O.3   1371  HOH1371     0.0000
   1419 O          42.6962   37.8235   51.2783 O.3   1372  HOH1372     0.0000
   1420 O          51.2783   82.2580   87.1307 O.3   1373  HOH1373     0.0000
   1421 O          15.3734   28.8282   42.6962 O.3   1374  HOH1374     0.0000
   1422 O          59.8079   37.8235   68.3900 O.3   1375  HOH1375     0.0000
   1423 O           6.8438   73.2627   23.9555 O.3   1376  HOH1376     0.0000
   1424 O          87.1307    6.8438   37.8235 O.3   1377  HOH1377     0.0000
   1425 O          42.6962   59.8079   73.2627 O.3   1378  HOH1378     0.0000
   1426 O          68.3900   15.3734   82.2580 O.3   1379  HOH1379     0.0000
   1427 O          23.9555   51.2783   28.8282 O.3   1380  HOH1380     0.0000
   1428 O          37.8235   42.6962   51.2783 O.3   1381  HOH1381     0.0000
   1429 O          73.2627   87.1307   15.3734 O.3   1382  HOH1382     0.0000
   1430 O          82.2580   23.9555   59.8079 O.3   1383  HOH1383     0.0000
   1431 O          28.8282   68.3900    6.8438 O.3   1384  HOH1384     0.0000
   1432 O          15.6063   29.0610   46.1728 O.3   1385  HOH1385     0.0000
   1433 O          51.0455   82.0252    1.7383 O.3   1386  HOH1386     0.0000
   1434 O          60.0408   37.5907   64.9135 O.3   1387  HOH1387     0.0000
   1435 O           6.6110   73.4955   20.4790 O.3   1388  HOH1388     0.0000
   1436 O          29.0610   64.9135    6.6110 O.3   1389  HOH1389     0.0000
   1437 O          82.0252   20.4790   60.0408 O.3   1390  HOH1390     0.0000
   1438 O          37.5907   46.1728   51.0455 O.3   1391  HOH1391     0.0000
   1439 O          73.4955    1.7383   15.6063 O.3   1392  HOH1392     0.0000
   1440 O          64.9135   15.6063   82.0252 O.3   1393  HOH1393     0.0000
   1441 O          20.4790   51.0455   29.0610 O.3   1394  HOH1394     0.0000
   1442 O          46.1728   60.0408   73.4955 O.3   1395  HOH1395     0.0000
   1443 O           1.7383    6.6110   37.5907 O.3   1396  HOH1396     0.0000
   1444 O          37.5907    6.6110    1.7383 O.3   1397  HOH1397     0.0000
   1445 O          73.4955   60.0408   46.1728 O.3   1398  HOH1398     0.0000
   1446 O          29.0610   51.0455   20.4790 O.3   1399  HOH1399     0.0000
   1447 O          82.0252   15.6063   64.9135 O.3   1400  HOH1400     0.0000
   1448 O           1.7383   82.0252   51.0455 O.3   1401  HOH1401     0.0000
   1449 O          46.1728   29.0610   15.6063 O.3   1402  HOH1402     0.0000
   1450 O          20.4790   73.4955    6.6110 O.3   1403  HOH1403     0.0000
   1451 O          64.9135   37.5907   60.0408 O.3   1404  HOH1404     0.0000
   1452 O          51.0455   46.1728   37.5907 O.3   1405  HOH1405     0.0000
   1453 O          15.6063    1.7383   73.4955 O.3   1406  HOH1406     0.0000
   1454 O           6.6110   64.9135   29.0610 O.3   1407  HOH1407     0.0000
   1455 O          60.0408   20.4790   82.0252 O.3   1408  HOH1408     0.0000
   1456 O          73.2627   59.8079   42.6962 O.3   1409  HOH1409     0.0000
   1457 O          37.8235    6.8438   87.1307 O.3   1410  HOH1410     0.0000
   1458 O          28.8282   51.2783   23.9555 O.3   1411  HOH1411     0.0000
   1459 O          82.2580   15.3734   68.3900 O.3   1412  HOH1412     0.0000
   1460 O          59.8079   23.9555   82.2580 O.3   1413  HOH1413     0.0000
   1461 O           6.8438   68.3900   28.8282 O.3   1414  HOH1414     0.0000
   1462 O          51.2783   42.6962   37.8235 O.3   1415  HOH1415     0.0000
   1463 O          15.3734   87.1307   73.2627 O.3   1416  HOH1416     0.0000
   1464 O          23.9555   73.2627    6.8438 O.3   1417  HOH1417     0.0000
   1465 O          68.3900   37.8235   59.8079 O.3   1418  HOH1418     0.0000
   1466 O          42.6962   28.8282   15.3734 O.3   1419  HOH1419     0.0000
   1467 O          87.1307   82.2580   51.2783 O.3   1420  HOH1420     0.0000
   1468 O          51.2783   37.8235   42.6962 O.3   1421  HOH1421     0.0000
   1469 O          15.3734   73.2627   87.1307 O.3   1422  HOH1422     0.0000
   1470 O          59.8079   82.2580   23.9555 O.3   1423  HOH1423     0.0000
   1471 O           6.8438   28.8282   68.3900 O.3   1424  HOH1424     0.0000
   1472 O          87.1307   51.2783   82.2580 O.3   1425  HOH1425     0.0000
   1473 O          42.6962   15.3734   28.8282 O.3   1426  HOH1426     0.0000
   1474 O          68.3900   59.8079   37.8235 O.3   1427  HOH1427     0.0000
   1475 O          23.9555    6.8438   73.2627 O.3   1428  HOH1428     0.0000
   1476 O          37.8235   87.1307    6.8438 O.3   1429  HOH1429     0.0000
   1477 O          73.2627   42.6962   59.8079 O.3   1430  HOH1430     0.0000
   1478 O          82.2580   68.3900   15.3734 O.3   1431  HOH1431     0.0000
   1479 O          28.8282   23.9555   51.2783 O.3   1432  HOH1432     0.0000
   1480 O          15.6063   73.4955    1.7383 O.3   1433  HOH1433     0.0000
   1481 O          51.0455   37.5907   46.1728 O.3   1434  HOH1434     0.0000
   1482 O          60.0408   82.0252   20.4790 O.3   1435  HOH1435     0.0000
   1483 O           6.6110   29.0610   64.9135 O.3   1436  HOH1436     0.0000
   1484 O          29.0610   20.4790   51.0455 O.3   1437  HOH1437     0.0000
   1485 O          82.0252   64.9135   15.6063 O.3   1438  HOH1438     0.0000
   1486 O          37.5907    1.7383    6.6110 O.3   1439  HOH1439     0.0000
   1487 O          73.4955   46.1728   60.0408 O.3   1440  HOH1440     0.0000
   1488 O          64.9135   60.0408   37.5907 O.3   1441  HOH1441     0.0000
   1489 O          20.4790    6.6110   73.4955 O.3   1442  HOH1442     0.0000
   1490 O          46.1728   15.6063   29.0610 O.3   1443  HOH1443     0.0000
   1491 O           1.7383   51.0455   82.0252 O.3   1444  HOH1444     0.0000
   1492 O          37.5907   51.0455   46.1728 O.3   1445  HOH1445     0.0000
   1493 O          73.4955   15.6063    1.7383 O.3   1446  HOH1446     0.0000
   1494 O          29.0610    6.6110   64.9135 O.3   1447  HOH1447     0.0000
   1495 O          82.0252   60.0408   20.4790 O.3   1448  HOH1448     0.0000
   1496 O           1.7383   37.5907    6.6110 O.3   1449  HOH1449     0.0000
   1497 O          46.1728   73.4955   60.0408 O.3   1450  HOH1450     0.0000
   1498 O          20.4790   29.0610   51.0455 O.3   1451  HOH1451     0.0000
   1499 O          64.9135   82.0252   15.6063 O.3   1452  HOH1452     0.0000
   1500 O          51.0455    1.7383   82.0252 O.3   1453  HOH1453     0.0000
   1501 O          15.6063   46.1728   29.0610 O.3   1454  HOH1454     0.0000
   1502 O           6.6110   20.4790   73.4955 O.3   1455  HOH1455     0.0000
   1503 O          60.0408   64.9135   37.5907 O.3   1456  HOH1456     0.0000
   1504 O          73.2627   15.3734   87.1307 O.3   1457  HOH1457     0.0000
   1505 O          37.8235   51.2783   42.6962 O.3   1458  HOH1458     0.0000
   1506 O          28.8282    6.8438   68.3900 O.3   1459  HOH1459     0.0000
   1507 O          82.2580   59.8079   23.9555 O.3   1460  HOH1460     0.0000
   1508 O          59.8079   68.3900   37.8235 O.3   1461  HOH1461     0.0000
   1509 O           6.8438   23.9555   73.2627 O.3   1462  HOH1462     0.0000
   1510 O          51.2783   87.1307   82.2580 O.3   1463  HOH1463     0.0000
   1511 O          15.3734   42.6962   28.8282 O.3   1464  HOH1464     0.0000
   1512 O          23.9555   28.8282   51.2783 O.3   1465  HOH1465     0.0000
   1513 O          68.3900   82.2580   15.3734 O.3   1466  HOH1466     0.0000
   1514 O          42.6962   73.2627   59.8079 O.3   1467  HOH1467     0.0000
   1515 O          87.1307   37.8235    6.8438 O.3   1468  HOH1468     0.0000
   1516 O          58.8526   27.5467   88.5953 O.3   1469  HOH1469     0.0000
   1517 O          14.4181   39.1050   22.4910 O.3   1470  HOH1470     0.0000
   1518 O          52.2336   71.9812   66.9255 O.3   1471  HOH1471     0.0000
   1519 O          44.1608    7.7991   83.5395 O.3   1472  HOH1472     0.0000
   1520 O          88.5953   58.8526   27.5467 O.3   1473  HOH1473     0.0000
   1521 O          22.4910   14.4181   39.1050 O.3   1474  HOH1474     0.0000
   1522 O          66.9255   52.2336   71.9812 O.3   1475  HOH1475     0.0000
   1523 O          83.5395   44.1608    7.7991 O.3   1476  HOH1476     0.0000
   1524 O          27.5467   88.5953   58.8526 O.3   1477  HOH1477     0.0000
   1525 O          39.1050   22.4910   14.4181 O.3   1478  HOH1478     0.0000
   1526 O          71.9812   66.9255   52.2336 O.3   1479  HOH1479     0.0000
   1527 O          61.3223   30.0164    0.2737 O.3   1480  HOH1480     0.0000
   1528 O           5.3295   81.0698   44.7082 O.3   1481  HOH1481     0.0000
   1529 O          16.8878   36.6354   21.9435 O.3   1482  HOH1482     0.0000
   1530 O          49.7640   74.4509   66.3780 O.3   1483  HOH1483     0.0000
   1531 O          74.4509   66.3780   49.7640 O.3   1484  HOH1484     0.0000
   1532 O          36.6354   21.9435   16.8878 O.3   1485  HOH1485     0.0000
   1533 O          81.0698   44.7082    5.3295 O.3   1486  HOH1486     0.0000
   1534 O          30.0164    0.2737   61.3223 O.3   1487  HOH1487     0.0000
   1535 O          21.9435   16.8878   36.6354 O.3   1488  HOH1488     0.0000
   1536 O          66.3780   49.7640   74.4509 O.3   1489  HOH1489     0.0000
   1537 O           0.2737   61.3223   30.0164 O.3   1490  HOH1490     0.0000
   1538 O          44.7082    5.3295   81.0698 O.3   1491  HOH1491     0.0000
   1539 O          81.0698    5.3295   44.7082 O.3   1492  HOH1492     0.0000
   1540 O          30.0164   61.3223    0.2737 O.3   1493  HOH1493     0.0000
   1541 O          74.4509   49.7640   66.3780 O.3   1494  HOH1494     0.0000
   1542 O          36.6354   16.8878   21.9435 O.3   1495  HOH1495     0.0000
   1543 O          44.7082   81.0698    5.3295 O.3   1496  HOH1496     0.0000
   1544 O           0.2737   30.0164   61.3223 O.3   1497  HOH1497     0.0000
   1545 O          66.3780   74.4509   49.7640 O.3   1498  HOH1498     0.0000
   1546 O          21.9435   36.6354   16.8878 O.3   1499  HOH1499     0.0000
   1547 O           5.3295   44.7082   81.0698 O.3   1500  HOH1500     0.0000
   1548 O          61.3223    0.2737   30.0164 O.3   1501  HOH1501     0.0000
   1549 O          49.7640   66.3780   74.4509 O.3   1502  HOH1502     0.0000
   1550 O          16.8878   21.9435   36.6354 O.3   1503  HOH1503     0.0000
   1551 O          27.5467   58.8526   88.5953 O.3   1504  HOH1504     0.0000
   1552 O          83.5395    7.7991   44.1608 O.3   1505  HOH1505     0.0000
   1553 O          71.9812   52.2336   66.9255 O.3   1506  HOH1506     0.0000
   1554 O          39.1050   14.4181   22.4910 O.3   1507  HOH1507     0.0000
   1555 O          14.4181   22.4910   39.1050 O.3   1508  HOH1508     0.0000
   1556 O          52.2336   66.9255   71.9812 O.3   1509  HOH1509     0.0000
   1557 O           7.7991   44.1608   83.5395 O.3   1510  HOH1510     0.0000
   1558 O          58.8526   88.5953   27.5467 O.3   1511  HOH1511     0.0000
   1559 O          66.9255   71.9812   52.2336 O.3   1512  HOH1512     0.0000
   1560 O          22.4910   39.1050   14.4181 O.3   1513  HOH1513     0.0000
   1561 O          88.5953   27.5467   58.8526 O.3   1514  HOH1514     0.0000
   1562 O          44.1608   83.5395    7.7991 O.3   1515  HOH1515     0.0000
   1563 O           7.7991   39.1050   88.5953 O.3   1516  HOH1516     0.0000
   1564 O          58.8526   71.9812   44.1608 O.3   1517  HOH1517     0.0000
   1565 O          14.4181   83.5395   66.9255 O.3   1518  HOH1518     0.0000
   1566 O          52.2336   27.5467   22.4910 O.3   1519  HOH1519     0.0000
   1567 O          44.1608   52.2336   39.1050 O.3   1520  HOH1520     0.0000
   1568 O          88.5953   14.4181   71.9812 O.3   1521  HOH1521     0.0000
   1569 O          22.4910   58.8526   83.5395 O.3   1522  HOH1522     0.0000
   1570 O          66.9255    7.7991   27.5467 O.3   1523  HOH1523     0.0000
   1571 O          83.5395   88.5953   52.2336 O.3   1524  HOH1524     0.0000
   1572 O          27.5467   44.1608   14.4181 O.3   1525  HOH1525     0.0000
   1573 O          39.1050   66.9255   58.8526 O.3   1526  HOH1526     0.0000
   1574 O          71.9812   22.4910    7.7991 O.3   1527  HOH1527     0.0000
   1575 O          61.3223   74.4509   44.7082 O.3   1528  HOH1528     0.0000
   1576 O           5.3295   36.6354    0.2737 O.3   1529  HOH1529     0.0000
   1577 O          16.8878   81.0698   66.3780 O.3   1530  HOH1530     0.0000
   1578 O          49.7640   30.0164   21.9435 O.3   1531  HOH1531     0.0000
   1579 O          74.4509   21.9435    5.3295 O.3   1532  HOH1532     0.0000
   1580 O          36.6354   66.3780   61.3223 O.3   1533  HOH1533     0.0000
   1581 O          81.0698    0.2737   49.7640 O.3   1534  HOH1534     0.0000
   1582 O          30.0164   44.7082   16.8878 O.3   1535  HOH1535     0.0000
   1583 O          21.9435   61.3223   81.0698 O.3   1536  HOH1536     0.0000
   1584 O          66.3780    5.3295   30.0164 O.3   1537  HOH1537     0.0000
   1585 O           0.2737   16.8878   74.4509 O.3   1538  HOH1538     0.0000
   1586 O          44.7082   49.7640   36.6354 O.3   1539  HOH1539     0.0000
   1587 O          81.0698   49.7640    0.2737 O.3   1540  HOH1540     0.0000
   1588 O          30.0164   16.8878   44.7082 O.3   1541  HOH1541     0.0000
   1589 O          74.4509    5.3295   21.9435 O.3   1542  HOH1542     0.0000
   1590 O          36.6354   61.3223   66.3780 O.3   1543  HOH1543     0.0000
   1591 O          44.7082   36.6354   49.7640 O.3   1544  HOH1544     0.0000
   1592 O           0.2737   74.4509   16.8878 O.3   1545  HOH1545     0.0000
   1593 O          66.3780   30.0164    5.3295 O.3   1546  HOH1546     0.0000
   1594 O          21.9435   81.0698   61.3223 O.3   1547  HOH1547     0.0000
   1595 O           5.3295    0.2737   36.6354 O.3   1548  HOH1548     0.0000
   1596 O          61.3223   44.7082   74.4509 O.3   1549  HOH1549     0.0000
   1597 O          49.7640   21.9435   30.0164 O.3   1550  HOH1550     0.0000
   1598 O          16.8878   66.3780   81.0698 O.3   1551  HOH1551     0.0000
   1599 O          27.5467   14.4181   44.1608 O.3   1552  HOH1552     0.0000
   1600 O          83.5395   52.2336   88.5953 O.3   1553  HOH1553     0.0000
   1601 O          71.9812    7.7991   22.4910 O.3   1554  HOH1554     0.0000
   1602 O          39.1050   58.8526   66.9255 O.3   1555  HOH1555     0.0000
   1603 O          14.4181   66.9255   83.5395 O.3   1556  HOH1556     0.0000
   1604 O          52.2336   22.4910   27.5467 O.3   1557  HOH1557     0.0000
   1605 O           7.7991   88.5953   39.1050 O.3   1558  HOH1558     0.0000
   1606 O          58.8526   44.1608   71.9812 O.3   1559  HOH1559     0.0000
   1607 O          66.9255   27.5467    7.7991 O.3   1560  HOH1560     0.0000
   1608 O          22.4910   83.5395   58.8526 O.3   1561  HOH1561     0.0000
   1609 O          88.5953   71.9812   14.4181 O.3   1562  HOH1562     0.0000
   1610 O          44.1608   39.1050   52.2336 O.3   1563  HOH1563     0.0000
   1611 O          52.2336   83.5395   88.5953 O.3   1564  HOH1564     0.0000
   1612 O          14.4181   27.5467   44.1608 O.3   1565  HOH1565     0.0000
   1613 O          58.8526   39.1050   66.9255 O.3   1566  HOH1566     0.0000
   1614 O           7.7991   71.9812   22.4910 O.3   1567  HOH1567     0.0000
   1615 O          88.5953    7.7991   39.1050 O.3   1568  HOH1568     0.0000
   1616 O          44.1608   58.8526   71.9812 O.3   1569  HOH1569     0.0000
   1617 O          66.9255   14.4181   83.5395 O.3   1570  HOH1570     0.0000
   1618 O          22.4910   52.2336   27.5467 O.3   1571  HOH1571     0.0000
   1619 O          39.1050   44.1608   52.2336 O.3   1572  HOH1572     0.0000
   1620 O          71.9812   88.5953   14.4181 O.3   1573  HOH1573     0.0000
   1621 O          83.5395   22.4910   58.8526 O.3   1574  HOH1574     0.0000
   1622 O          27.5467   66.9255    7.7991 O.3   1575  HOH1575     0.0000
   1623 O          16.8878   30.0164   44.7082 O.3   1576  HOH1576     0.0000
   1624 O          49.7640   81.0698    0.2737 O.3   1577  HOH1577     0.0000
   1625 O          61.3223   36.6354   66.3780 O.3   1578  HOH1578     0.0000
   1626 O           5.3295   74.4509   21.9435 O.3   1579  HOH1579     0.0000
   1627 O          30.0164   66.3780    5.3295 O.3   1580  HOH1580     0.0000
   1628 O          81.0698   21.9435   61.3223 O.3   1581  HOH1581     0.0000
   1629 O          36.6354   44.7082   49.7640 O.3   1582  HOH1582     0.0000
   1630 O          74.4509    0.2737   16.8878 O.3   1583  HOH1583     0.0000
   1631 O          66.3780   16.8878   81.0698 O.3   1584  HOH1584     0.0000
   1632 O          21.9435   49.7640   30.0164 O.3   1585  HOH1585     0.0000
   1633 O          44.7082   61.3223   74.4509 O.3   1586  HOH1586     0.0000
   1634 O           0.2737    5.3295   36.6354 O.3   1587  HOH1587     0.0000
   1635 O          36.6354    5.3295    0.2737 O.3   1588  HOH1588     0.0000
   1636 O          74.4509   61.3223   44.7082 O.3   1589  HOH1589     0.0000
   1637 O          30.0164   49.7640   21.9435 O.3   1590  HOH1590     0.0000
   1638 O          81.0698   16.8878   66.3780 O.3   1591  HOH1591     0.0000
   1639 O           0.2737   81.0698   49.7640 O.3   1592  HOH1592     0.0000
   1640 O          44.7082   30.0164   16.8878 O.3   1593  HOH1593     0.0000
   1641 O          21.9435   74.4509    5.3295 O.3   1594  HOH1594     0.0000
   1642 O          66.3780   36.6354   61.3223 O.3   1595  HOH1595     0.0000
   1643 O          49.7640   44.7082   36.6354 O.3   1596  HOH1596     0.0000
   1644 O          16.8878    0.2737   74.4509 O.3   1597  HOH1597     0.0000
   1645 O           5.3295   66.3780   30.0164 O.3   1598  HOH1598     0.0000
   1646 O          61.3223   21.9435   81.0698 O.3   1599  HOH1599     0.0000
   1647 O          71.9812   58.8526   44.1608 O.3   1600  HOH1600     0.0000
   1648 O          39.1050    7.7991   88.5953 O.3   1601  HOH1601     0.0000
   1649 O          27.5467   52.2336   22.4910 O.3   1602  HOH1602     0.0000
   1650 O          83.5395   14.4181   66.9255 O.3   1603  HOH1603     0.0000
   1651 O          58.8526   22.4910   83.5395 O.3   1604  HOH1604     0.0000
   1652 O           7.7991   66.9255   27.5467 O.3   1605  HOH1605     0.0000
   1653 O          52.2336   44.1608   39.1050 O.3   1606  HOH1606     0.0000
   1654 O          14.4181   88.5953   71.9812 O.3   1607  HOH1607     0.0000
   1655 O          22.4910   71.9812    7.7991 O.3   1608  HOH1608     0.0000
   1656 O          66.9255   39.1050   58.8526 O.3   1609  HOH1609     0.0000
   1657 O          44.1608   27.5467   14.4181 O.3   1610  HOH1610     0.0000
   1658 O          88.5953   83.5395   52.2336 O.3   1611  HOH1611     0.0000
   1659 O          52.2336   39.1050   44.1608 O.3   1612  HOH1612     0.0000
   1660 O          14.4181   71.9812   88.5953 O.3   1613  HOH1613     0.0000
   1661 O          58.8526   83.5395   22.4910 O.3   1614  HOH1614     0.0000
   1662 O           7.7991   27.5467   66.9255 O.3   1615  HOH1615     0.0000
   1663 O          88.5953   52.2336   83.5395 O.3   1616  HOH1616     0.0000
   1664 O          44.1608   14.4181   27.5467 O.3   1617  HOH1617     0.0000
   1665 O          66.9255   58.8526   39.1050 O.3   1618  HOH1618     0.0000
   1666 O          22.4910    7.7991   71.9812 O.3   1619  HOH1619     0.0000
   1667 O          39.1050   88.5953    7.7991 O.3   1620  HOH1620     0.0000
   1668 O          71.9812   44.1608   58.8526 O.3   1621  HOH1621     0.0000
   1669 O          83.5395   66.9255   14.4181 O.3   1622  HOH1622     0.0000
   1670 O          27.5467   22.4910   52.2336 O.3   1623  HOH1623     0.0000
   1671 O          16.8878   74.4509    0.2737 O.3   1624  HOH1624     0.0000
   1672 O          49.7640   36.6354   44.7082 O.3   1625  HOH1625     0.0000
   1673 O          61.3223   81.0698   21.9435 O.3   1626  HOH1626     0.0000
   1674 O           5.3295   30.0164   66.3780 O.3   1627  HOH1627     0.0000
   1675 O          30.0164   21.9435   49.7640 O.3   1628  HOH1628     0.0000
   1676 O          81.0698   66.3780   16.8878 O.3   1629  HOH1629     0.0000
   1677 O          36.6354    0.2737    5.3295 O.3   1630  HOH1630     0.0000
   1678 O          74.4509   44.7082   61.3223 O.3   1631  HOH1631     0.0000
   1679 O          66.3780   61.3223   36.6354 O.3   1632  HOH1632     0.0000
   1680 O          21.9435    5.3295   74.4509 O.3   1633  HOH1633     0.0000
   1681 O          44.7082   16.8878   30.0164 O.3   1634  HOH1634     0.0000
   1682 O           0.2737   49.7640   81.0698 O.3   1635  HOH1635     0.0000
   1683 O          36.6354   49.7640   44.7082 O.3   1636  HOH1636     0.0000
   1684 O          74.4509   16.8878    0.2737 O.3   1637  HOH1637     0.0000
   1685 O          30.0164    5.3295   66.3780 O.3   1638  HOH1638     0.0000
   1686 O          81.0698   61.3223   21.9435 O.3   1639  HOH1639     0.0000
   1687 O           0.2737   36.6354    5.3295 O.3   1640  HOH1640     0.0000
   1688 O          44.7082   74.4509   61.3223 O.3   1641  HOH1641     0.0000
   1689 O          21.9435   30.0164   49.7640 O.3   1642  HOH1642     0.0000
   1690 O          66.3780   81.0698   16.8878 O.3   1643  HOH1643     0.0000
   1691 O          49.7640    0.2737   81.0698 O.3   1644  HOH1644     0.0000
   1692 O          16.8878   44.7082   30.0164 O.3   1645  HOH1645     0.0000
   1693 O           5.3295   21.9435   74.4509 O.3   1646  HOH1646     0.0000
   1694 O          61.3223   66.3780   36.6354 O.3   1647  HOH1647     0.0000
   1695 O          71.9812   14.4181   88.5953 O.3   1648  HOH1648     0.0000
   1696 O          39.1050   52.2336   44.1608 O.3   1649  HOH1649     0.0000
   1697 O          27.5467    7.7991   66.9255 O.3   1650  HOH1650     0.0000
   1698 O          83.5395   58.8526   22.4910 O.3   1651  HOH1651     0.0000
   1699 O          58.8526   66.9255   39.1050 O.3   1652  HOH1652     0.0000
   1700 O           7.7991   22.4910   71.9812 O.3   1653  HOH1653     0.0000
   1701 O          52.2336   88.5953   83.5395 O.3   1654  HOH1654     0.0000
   1702 O          14.4181   44.1608   27.5467 O.3   1655  HOH1655     0.0000
   1703 O          22.4910   27.5467   52.2336 O.3   1656  HOH1656     0.0000
   1704 O          66.9255   83.5395   14.4181 O.3   1657  HOH1657     0.0000
   1705 O          44.1608   71.9812   58.8526 O.3   1658  HOH1658     0.0000
   1706 O          88.5953   39.1050    7.7991 O.3   1659  HOH1659     0.0000
   1707 O          58.8686   24.6354   79.8719 O.3   1660  HOH1660     0.0000
   1708 O          14.4341   42.0164   31.2143 O.3   1661  HOH1661     0.0000
   1709 O          52.2176   69.0699   75.6488 O.3   1662  HOH1662     0.0000
   1710 O          35.4374    7.7831   86.4509 O.3   1663  HOH1663     0.0000
   1711 O          79.8719   58.8686   24.6354 O.3   1664  HOH1664     0.0000
   1712 O          31.2143   14.4341   42.0164 O.3   1665  HOH1665     0.0000
   1713 O          75.6488   52.2176   69.0699 O.3   1666  HOH1666     0.0000
   1714 O          86.4509   35.4374    7.7831 O.3   1667  HOH1667     0.0000
   1715 O          24.6354   79.8719   58.8686 O.3   1668  HOH1668     0.0000
   1716 O          42.0164   31.2143   14.4341 O.3   1669  HOH1669     0.0000
   1717 O          69.0699   75.6488   52.2176 O.3   1670  HOH1670     0.0000
   1718 O          64.2336   30.0004    8.9971 O.3   1671  HOH1671     0.0000
   1719 O           2.4181   81.0858   53.4316 O.3   1672  HOH1672     0.0000
   1720 O          19.7991   36.6513   13.2202 O.3   1673  HOH1673     0.0000
   1721 O          46.8526   74.4349   57.6546 O.3   1674  HOH1674     0.0000
   1722 O          74.4349   57.6546   46.8526 O.3   1675  HOH1675     0.0000
   1723 O          36.6513   13.2202   19.7991 O.3   1676  HOH1676     0.0000
   1724 O          81.0858   53.4316    2.4181 O.3   1677  HOH1677     0.0000
   1725 O          30.0004    8.9971   64.2336 O.3   1678  HOH1678     0.0000
   1726 O          13.2202   19.7991   36.6513 O.3   1679  HOH1679     0.0000
   1727 O          57.6546   46.8526   74.4349 O.3   1680  HOH1680     0.0000
   1728 O           8.9971   64.2336   30.0004 O.3   1681  HOH1681     0.0000
   1729 O          53.4316    2.4181   81.0858 O.3   1682  HOH1682     0.0000
   1730 O          81.0858    2.4181   53.4316 O.3   1683  HOH1683     0.0000
   1731 O          30.0004   64.2336    8.9971 O.3   1684  HOH1684     0.0000
   1732 O          74.4349   46.8526   57.6546 O.3   1685  HOH1685     0.0000
   1733 O          36.6513   19.7991   13.2202 O.3   1686  HOH1686     0.0000
   1734 O          53.4316   81.0858    2.4181 O.3   1687  HOH1687     0.0000
   1735 O           8.9971   30.0004   64.2336 O.3   1688  HOH1688     0.0000
   1736 O          57.6546   74.4349   46.8526 O.3   1689  HOH1689     0.0000
   1737 O          13.2202   36.6513   19.7991 O.3   1690  HOH1690     0.0000
   1738 O           2.4181   53.4316   81.0858 O.3   1691  HOH1691     0.0000
   1739 O          64.2336    8.9971   30.0004 O.3   1692  HOH1692     0.0000
   1740 O          46.8526   57.6546   74.4349 O.3   1693  HOH1693     0.0000
   1741 O          19.7991   13.2202   36.6513 O.3   1694  HOH1694     0.0000
   1742 O          24.6354   58.8686   79.8719 O.3   1695  HOH1695     0.0000
   1743 O          86.4509    7.7831   35.4374 O.3   1696  HOH1696     0.0000
   1744 O          69.0699   52.2176   75.6488 O.3   1697  HOH1697     0.0000
   1745 O          42.0164   14.4341   31.2143 O.3   1698  HOH1698     0.0000
   1746 O          14.4341   31.2143   42.0164 O.3   1699  HOH1699     0.0000
   1747 O          52.2176   75.6488   69.0699 O.3   1700  HOH1700     0.0000
   1748 O           7.7831   35.4374   86.4509 O.3   1701  HOH1701     0.0000
   1749 O          58.8686   79.8719   24.6354 O.3   1702  HOH1702     0.0000
   1750 O          75.6488   69.0699   52.2176 O.3   1703  HOH1703     0.0000
   1751 O          31.2143   42.0164   14.4341 O.3   1704  HOH1704     0.0000
   1752 O          79.8719   24.6354   58.8686 O.3   1705  HOH1705     0.0000
   1753 O          35.4374   86.4509    7.7831 O.3   1706  HOH1706     0.0000
   1754 O           7.7831   42.0164   79.8719 O.3   1707  HOH1707     0.0000
   1755 O          58.8686   69.0699   35.4374 O.3   1708  HOH1708     0.0000
   1756 O          14.4341   86.4509   75.6488 O.3   1709  HOH1709     0.0000
   1757 O          52.2176   24.6354   31.2143 O.3   1710  HOH1710     0.0000
   1758 O          35.4374   52.2176   42.0164 O.3   1711  HOH1711     0.0000
   1759 O          79.8719   14.4341   69.0699 O.3   1712  HOH1712     0.0000
   1760 O          31.2143   58.8686   86.4509 O.3   1713  HOH1713     0.0000
   1761 O          75.6488    7.7831   24.6354 O.3   1714  HOH1714     0.0000
   1762 O          86.4509   79.8719   52.2176 O.3   1715  HOH1715     0.0000
   1763 O          24.6354   35.4374   14.4341 O.3   1716  HOH1716     0.0000
   1764 O          42.0164   75.6488   58.8686 O.3   1717  HOH1717     0.0000
   1765 O          69.0699   31.2143    7.7831 O.3   1718  HOH1718     0.0000
   1766 O          64.2336   74.4349   53.4316 O.3   1719  HOH1719     0.0000
   1767 O           2.4181   36.6513    8.9971 O.3   1720  HOH1720     0.0000
   1768 O          19.7991   81.0858   57.6546 O.3   1721  HOH1721     0.0000
   1769 O          46.8526   30.0004   13.2202 O.3   1722  HOH1722     0.0000
   1770 O          74.4349   13.2202    2.4181 O.3   1723  HOH1723     0.0000
   1771 O          36.6513   57.6546   64.2336 O.3   1724  HOH1724     0.0000
   1772 O          81.0858    8.9971   46.8526 O.3   1725  HOH1725     0.0000
   1773 O          30.0004   53.4316   19.7991 O.3   1726  HOH1726     0.0000
   1774 O          13.2202   64.2336   81.0858 O.3   1727  HOH1727     0.0000
   1775 O          57.6546    2.4181   30.0004 O.3   1728  HOH1728     0.0000
   1776 O           8.9971   19.7991   74.4349 O.3   1729  HOH1729     0.0000
   1777 O          53.4316   46.8526   36.6513 O.3   1730  HOH1730     0.0000
   1778 O          81.0858   46.8526    8.9971 O.3   1731  HOH1731     0.0000
   1779 O          30.0004   19.7991   53.4316 O.3   1732  HOH1732     0.0000
   1780 O          74.4349    2.4181   13.2202 O.3   1733  HOH1733     0.0000
   1781 O          36.6513   64.2336   57.6546 O.3   1734  HOH1734     0.0000
   1782 O          53.4316   36.6513   46.8526 O.3   1735  HOH1735     0.0000
   1783 O           8.9971   74.4349   19.7991 O.3   1736  HOH1736     0.0000
   1784 O          57.6546   30.0004    2.4181 O.3   1737  HOH1737     0.0000
   1785 O          13.2202   81.0858   64.2336 O.3   1738  HOH1738     0.0000
   1786 O           2.4181    8.9971   36.6513 O.3   1739  HOH1739     0.0000
   1787 O          64.2336   53.4316   74.4349 O.3   1740  HOH1740     0.0000
   1788 O          46.8526   13.2202   30.0004 O.3   1741  HOH1741     0.0000
   1789 O          19.7991   57.6546   81.0858 O.3   1742  HOH1742     0.0000
   1790 O          24.6354   14.4341   35.4374 O.3   1743  HOH1743     0.0000
   1791 O          86.4509   52.2176   79.8719 O.3   1744  HOH1744     0.0000
   1792 O          69.0699    7.7831   31.2143 O.3   1745  HOH1745     0.0000
   1793 O          42.0164   58.8686   75.6488 O.3   1746  HOH1746     0.0000
   1794 O          14.4341   75.6488   86.4509 O.3   1747  HOH1747     0.0000
   1795 O          52.2176   31.2143   24.6354 O.3   1748  HOH1748     0.0000
   1796 O           7.7831   79.8719   42.0164 O.3   1749  HOH1749     0.0000
   1797 O          58.8686   35.4374   69.0699 O.3   1750  HOH1750     0.0000
   1798 O          75.6488   24.6354    7.7831 O.3   1751  HOH1751     0.0000
   1799 O          31.2143   86.4509   58.8686 O.3   1752  HOH1752     0.0000
   1800 O          79.8719   69.0699   14.4341 O.3   1753  HOH1753     0.0000
   1801 O          35.4374   42.0164   52.2176 O.3   1754  HOH1754     0.0000
   1802 O          52.2176   86.4509   79.8719 O.3   1755  HOH1755     0.0000
   1803 O          14.4341   24.6354   35.4374 O.3   1756  HOH1756     0.0000
   1804 O          58.8686   42.0164   75.6488 O.3   1757  HOH1757     0.0000
   1805 O           7.7831   69.0699   31.2143 O.3   1758  HOH1758     0.0000
   1806 O          79.8719    7.7831   42.0164 O.3   1759  HOH1759     0.0000
   1807 O          35.4374   58.8686   69.0699 O.3   1760  HOH1760     0.0000
   1808 O          75.6488   14.4341   86.4509 O.3   1761  HOH1761     0.0000
   1809 O          31.2143   52.2176   24.6354 O.3   1762  HOH1762     0.0000
   1810 O          42.0164   35.4374   52.2176 O.3   1763  HOH1763     0.0000
   1811 O          69.0699   79.8719   14.4341 O.3   1764  HOH1764     0.0000
   1812 O          86.4509   31.2143   58.8686 O.3   1765  HOH1765     0.0000
   1813 O          24.6354   75.6488    7.7831 O.3   1766  HOH1766     0.0000
   1814 O          19.7991   30.0004   53.4316 O.3   1767  HOH1767     0.0000
   1815 O          46.8526   81.0858    8.9971 O.3   1768  HOH1768     0.0000
   1816 O          64.2336   36.6513   57.6546 O.3   1769  HOH1769     0.0000
   1817 O           2.4181   74.4349   13.2202 O.3   1770  HOH1770     0.0000
   1818 O          30.0004   57.6546    2.4181 O.3   1771  HOH1771     0.0000
   1819 O          81.0858   13.2202   64.2336 O.3   1772  HOH1772     0.0000
   1820 O          36.6513   53.4316   46.8526 O.3   1773  HOH1773     0.0000
   1821 O          74.4349    8.9971   19.7991 O.3   1774  HOH1774     0.0000
   1822 O          57.6546   19.7991   81.0858 O.3   1775  HOH1775     0.0000
   1823 O          13.2202   46.8526   30.0004 O.3   1776  HOH1776     0.0000
   1824 O          53.4316   64.2336   74.4349 O.3   1777  HOH1777     0.0000
   1825 O           8.9971    2.4181   36.6513 O.3   1778  HOH1778     0.0000
   1826 O          36.6513    2.4181    8.9971 O.3   1779  HOH1779     0.0000
   1827 O          74.4349   64.2336   53.4316 O.3   1780  HOH1780     0.0000
   1828 O          30.0004   46.8526   13.2202 O.3   1781  HOH1781     0.0000
   1829 O          81.0858   19.7991   57.6546 O.3   1782  HOH1782     0.0000
   1830 O           8.9971   81.0858   46.8526 O.3   1783  HOH1783     0.0000
   1831 O          53.4316   30.0004   19.7991 O.3   1784  HOH1784     0.0000
   1832 O          13.2202   74.4349    2.4181 O.3   1785  HOH1785     0.0000
   1833 O          57.6546   36.6513   64.2336 O.3   1786  HOH1786     0.0000
   1834 O          46.8526   53.4316   36.6513 O.3   1787  HOH1787     0.0000
   1835 O          19.7991    8.9971   74.4349 O.3   1788  HOH1788     0.0000
   1836 O           2.4181   57.6546   30.0004 O.3   1789  HOH1789     0.0000
   1837 O          64.2336   13.2202   81.0858 O.3   1790  HOH1790     0.0000
   1838 O          69.0699   58.8686   35.4374 O.3   1791  HOH1791     0.0000
   1839 O          42.0164    7.7831   79.8719 O.3   1792  HOH1792     0.0000
   1840 O          24.6354   52.2176   31.2143 O.3   1793  HOH1793     0.0000
   1841 O          86.4509   14.4341   75.6488 O.3   1794  HOH1794     0.0000
   1842 O          58.8686   31.2143   86.4509 O.3   1795  HOH1795     0.0000
   1843 O           7.7831   75.6488   24.6354 O.3   1796  HOH1796     0.0000
   1844 O          52.2176   35.4374   42.0164 O.3   1797  HOH1797     0.0000
   1845 O          14.4341   79.8719   69.0699 O.3   1798  HOH1798     0.0000
   1846 O          31.2143   69.0699    7.7831 O.3   1799  HOH1799     0.0000
   1847 O          75.6488   42.0164   58.8686 O.3   1800  HOH1800     0.0000
   1848 O          35.4374   24.6354   14.4341 O.3   1801  HOH1801     0.0000
   1849 O          79.8719   86.4509   52.2176 O.3   1802  HOH1802     0.0000
   1850 O          52.2176   42.0164   35.4374 O.3   1803  HOH1803     0.0000
   1851 O          14.4341   69.0699   79.8719 O.3   1804  HOH1804     0.0000
   1852 O          58.8686   86.4509   31.2143 O.3   1805  HOH1805     0.0000
   1853 O           7.7831   24.6354   75.6488 O.3   1806  HOH1806     0.0000
   1854 O          79.8719   52.2176   86.4509 O.3   1807  HOH1807     0.0000
   1855 O          35.4374   14.4341   24.6354 O.3   1808  HOH1808     0.0000
   1856 O          75.6488   58.8686   42.0164 O.3   1809  HOH1809     0.0000
   1857 O          31.2143    7.7831   69.0699 O.3   1810  HOH1810     0.0000
   1858 O          42.0164   79.8719    7.7831 O.3   1811  HOH1811     0.0000
   1859 O          69.0699   35.4374   58.8686 O.3   1812  HOH1812     0.0000
   1860 O          86.4509   75.6488   14.4341 O.3   1813  HOH1813     0.0000
   1861 O          24.6354   31.2143   52.2176 O.3   1814  HOH1814     0.0000
   1862 O          19.7991   74.4349    8.9971 O.3   1815  HOH1815     0.0000
   1863 O          46.8526   36.6513   53.4316 O.3   1816  HOH1816     0.0000
   1864 O          64.2336   81.0858   13.2202 O.3   1817  HOH1817     0.0000
   1865 O           2.4181   30.0004   57.6546 O.3   1818  HOH1818     0.0000
   1866 O          30.0004   13.2202   46.8526 O.3   1819  HOH1819     0.0000
   1867 O          81.0858   57.6546   19.7991 O.3   1820  HOH1820     0.0000
   1868 O          36.6513    8.9971    2.4181 O.3   1821  HOH1821     0.0000
   1869 O          74.4349   53.4316   64.2336 O.3   1822  HOH1822     0.0000
   1870 O          57.6546   64.2336   36.6513 O.3   1823  HOH1823     0.0000
   1871 O          13.2202    2.4181   74.4349 O.3   1824  HOH1824     0.0000
   1872 O          53.4316   19.7991   30.0004 O.3   1825  HOH1825     0.0000
   1873 O           8.9971   46.8526   81.0858 O.3   1826  HOH1826     0.0000
   1874 O          36.6513   46.8526   53.4316 O.3   1827  HOH1827     0.0000
   1875 O          74.4349   19.7991    8.9971 O.3   1828  HOH1828     0.0000
   1876 O          30.0004    2.4181   57.6546 O.3   1829  HOH1829     0.0000
   1877 O          81.0858   64.2336   13.2202 O.3   1830  HOH1830     0.0000
   1878 O           8.9971   36.6513    2.4181 O.3   1831  HOH1831     0.0000
   1879 O          53.4316   74.4349   64.2336 O.3   1832  HOH1832     0.0000
   1880 O          13.2202   30.0004   46.8526 O.3   1833  HOH1833     0.0000
   1881 O          57.6546   81.0858   19.7991 O.3   1834  HOH1834     0.0000
   1882 O          46.8526    8.9971   81.0858 O.3   1835  HOH1835     0.0000
   1883 O          19.7991   53.4316   30.0004 O.3   1836  HOH1836     0.0000
   1884 O           2.4181   13.2202   74.4349 O.3   1837  HOH1837     0.0000
   1885 O          64.2336   57.6546   36.6513 O.3   1838  HOH1838     0.0000
   1886 O          69.0699   14.4341   79.8719 O.3   1839  HOH1839     0.0000
   1887 O          42.0164   52.2176   35.4374 O.3   1840  HOH1840     0.0000
   1888 O          24.6354    7.7831   75.6488 O.3   1841  HOH1841     0.0000
   1889 O          86.4509   58.8686   31.2143 O.3   1842  HOH1842     0.0000
   1890 O          58.8686   75.6488   42.0164 O.3   1843  HOH1843     0.0000
   1891 O           7.7831   31.2143   69.0699 O.3   1844  HOH1844     0.0000
   1892 O          52.2176   79.8719   86.4509 O.3   1845  HOH1845     0.0000
   1893 O          14.4341   35.4374   24.6354 O.3   1846  HOH1846     0.0000
   1894 O          31.2143   24.6354   52.2176 O.3   1847  HOH1847     0.0000
   1895 O          75.6488   86.4509   14.4341 O.3   1848  HOH1848     0.0000
   1896 O          35.4374   69.0699   58.8686 O.3   1849  HOH1849     0.0000
   1897 O          79.8719   42.0164    7.7831 O.3   1850  HOH1850     0.0000
   1898 O          57.0770   24.2195   78.6055 O.3   1851  HOH1851     0.0000
   1899 O          12.6425   42.4323   32.4807 O.3   1852  HOH1852     0.0000
   1900 O          54.0092   68.6540   76.9152 O.3   1853  HOH1853     0.0000
   1901 O          34.1710    9.5747   86.8668 O.3   1854  HOH1854     0.0000
   1902 O          78.6055   57.0770   24.2195 O.3   1855  HOH1855     0.0000
   1903 O          32.4807   12.6425   42.4323 O.3   1856  HOH1856     0.0000
   1904 O          76.9152   54.0092   68.6540 O.3   1857  HOH1857     0.0000
   1905 O          86.8668   34.1710    9.5747 O.3   1858  HOH1858     0.0000
   1906 O          24.2195   78.6055   57.0770 O.3   1859  HOH1859     0.0000
   1907 O          42.4323   32.4807   12.6425 O.3   1860  HOH1860     0.0000
   1908 O          68.6540   76.9152   54.0092 O.3   1861  HOH1861     0.0000
   1909 O          64.6495   31.7920   10.2635 O.3   1862  HOH1862     0.0000
   1910 O           2.0022   79.2942   54.6980 O.3   1863  HOH1863     0.0000
   1911 O          20.2150   34.8598   11.9538 O.3   1864  HOH1864     0.0000
   1912 O          46.4367   76.2265   56.3883 O.3   1865  HOH1865     0.0000
   1913 O          76.2265   56.3883   46.4367 O.3   1866  HOH1866     0.0000
   1914 O          34.8598   11.9538   20.2150 O.3   1867  HOH1867     0.0000
   1915 O          79.2942   54.6980    2.0022 O.3   1868  HOH1868     0.0000
   1916 O          31.7920   10.2635   64.6495 O.3   1869  HOH1869     0.0000
   1917 O          11.9538   20.2150   34.8598 O.3   1870  HOH1870     0.0000
   1918 O          56.3883   46.4367   76.2265 O.3   1871  HOH1871     0.0000
   1919 O          10.2635   64.6495   31.7920 O.3   1872  HOH1872     0.0000
   1920 O          54.6980    2.0022   79.2942 O.3   1873  HOH1873     0.0000
   1921 O          79.2942    2.0022   54.6980 O.3   1874  HOH1874     0.0000
   1922 O          31.7920   64.6495   10.2635 O.3   1875  HOH1875     0.0000
   1923 O          76.2265   46.4367   56.3883 O.3   1876  HOH1876     0.0000
   1924 O          34.8598   20.2150   11.9538 O.3   1877  HOH1877     0.0000
   1925 O          54.6980   79.2942    2.0022 O.3   1878  HOH1878     0.0000
   1926 O          10.2635   31.7920   64.6495 O.3   1879  HOH1879     0.0000
   1927 O          56.3883   76.2265   46.4367 O.3   1880  HOH1880     0.0000
   1928 O          11.9538   34.8598   20.2150 O.3   1881  HOH1881     0.0000
   1929 O           2.0022   54.6980   79.2942 O.3   1882  HOH1882     0.0000
   1930 O          64.6495   10.2635   31.7920 O.3   1883  HOH1883     0.0000
   1931 O          46.4367   56.3883   76.2265 O.3   1884  HOH1884     0.0000
   1932 O          20.2150   11.9538   34.8598 O.3   1885  HOH1885     0.0000
   1933 O          24.2195   57.0770   78.6055 O.3   1886  HOH1886     0.0000
   1934 O          86.8668    9.5747   34.1710 O.3   1887  HOH1887     0.0000
   1935 O          68.6540   54.0092   76.9152 O.3   1888  HOH1888     0.0000
   1936 O          42.4323   12.6425   32.4807 O.3   1889  HOH1889     0.0000
   1937 O          12.6425   32.4807   42.4323 O.3   1890  HOH1890     0.0000
   1938 O          54.0092   76.9152   68.6540 O.3   1891  HOH1891     0.0000
   1939 O           9.5747   34.1710   86.8668 O.3   1892  HOH1892     0.0000
   1940 O          57.0770   78.6055   24.2195 O.3   1893  HOH1893     0.0000
   1941 O          76.9152   68.6540   54.0092 O.3   1894  HOH1894     0.0000
   1942 O          32.4807   42.4323   12.6425 O.3   1895  HOH1895     0.0000
   1943 O          78.6055   24.2195   57.0770 O.3   1896  HOH1896     0.0000
   1944 O          34.1710   86.8668    9.5747 O.3   1897  HOH1897     0.0000
   1945 O           9.5747   42.4323   78.6055 O.3   1898  HOH1898     0.0000
   1946 O          57.0770   68.6540   34.1710 O.3   1899  HOH1899     0.0000
   1947 O          12.6425   86.8668   76.9152 O.3   1900  HOH1900     0.0000
   1948 O          54.0092   24.2195   32.4807 O.3   1901  HOH1901     0.0000
   1949 O          34.1710   54.0092   42.4323 O.3   1902  HOH1902     0.0000
   1950 O          78.6055   12.6425   68.6540 O.3   1903  HOH1903     0.0000
   1951 O          32.4807   57.0770   86.8668 O.3   1904  HOH1904     0.0000
   1952 O          76.9152    9.5747   24.2195 O.3   1905  HOH1905     0.0000
   1953 O          86.8668   78.6055   54.0092 O.3   1906  HOH1906     0.0000
   1954 O          24.2195   34.1710   12.6425 O.3   1907  HOH1907     0.0000
   1955 O          42.4323   76.9152   57.0770 O.3   1908  HOH1908     0.0000
   1956 O          68.6540   32.4807    9.5747 O.3   1909  HOH1909     0.0000
   1957 O          64.6495   76.2265   54.6980 O.3   1910  HOH1910     0.0000
   1958 O           2.0022   34.8598   10.2635 O.3   1911  HOH1911     0.0000
   1959 O          20.2150   79.2942   56.3883 O.3   1912  HOH1912     0.0000
   1960 O          46.4367   31.7920   11.9538 O.3   1913  HOH1913     0.0000
   1961 O          76.2265   11.9538    2.0022 O.3   1914  HOH1914     0.0000
   1962 O          34.8598   56.3883   64.6495 O.3   1915  HOH1915     0.0000
   1963 O          79.2942   10.2635   46.4367 O.3   1916  HOH1916     0.0000
   1964 O          31.7920   54.6980   20.2150 O.3   1917  HOH1917     0.0000
   1965 O          11.9538   64.6495   79.2942 O.3   1918  HOH1918     0.0000
   1966 O          56.3883    2.0022   31.7920 O.3   1919  HOH1919     0.0000
   1967 O          10.2635   20.2150   76.2265 O.3   1920  HOH1920     0.0000
   1968 O          54.6980   46.4367   34.8598 O.3   1921  HOH1921     0.0000
   1969 O          79.2942   46.4367   10.2635 O.3   1922  HOH1922     0.0000
   1970 O          31.7920   20.2150   54.6980 O.3   1923  HOH1923     0.0000
   1971 O          76.2265    2.0022   11.9538 O.3   1924  HOH1924     0.0000
   1972 O          34.8598   64.6495   56.3883 O.3   1925  HOH1925     0.0000
   1973 O          54.6980   34.8598   46.4367 O.3   1926  HOH1926     0.0000
   1974 O          10.2635   76.2265   20.2150 O.3   1927  HOH1927     0.0000
   1975 O          56.3883   31.7920    2.0022 O.3   1928  HOH1928     0.0000
   1976 O          11.9538   79.2942   64.6495 O.3   1929  HOH1929     0.0000
   1977 O           2.0022   10.2635   34.8598 O.3   1930  HOH1930     0.0000
   1978 O          64.6495   54.6980   76.2265 O.3   1931  HOH1931     0.0000
   1979 O          46.4367   11.9538   31.7920 O.3   1932  HOH1932     0.0000
   1980 O          20.2150   56.3883   79.2942 O.3   1933  HOH1933     0.0000
   1981 O          24.2195   12.6425   34.1710 O.3   1934  HOH1934     0.0000
   1982 O          86.8668   54.0092   78.6055 O.3   1935  HOH1935     0.0000
   1983 O          68.6540    9.5747   32.4807 O.3   1936  HOH1936     0.0000
   1984 O          42.4323   57.0770   76.9152 O.3   1937  HOH1937     0.0000
   1985 O          12.6425   76.9152   86.8668 O.3   1938  HOH1938     0.0000
   1986 O          54.0092   32.4807   24.2195 O.3   1939  HOH1939     0.0000
   1987 O           9.5747   78.6055   42.4323 O.3   1940  HOH1940     0.0000
   1988 O          57.0770   34.1710   68.6540 O.3   1941  HOH1941     0.0000
   1989 O          76.9152   24.2195    9.5747 O.3   1942  HOH1942     0.0000
   1990 O          32.4807   86.8668   57.0770 O.3   1943  HOH1943     0.0000
   1991 O          78.6055   68.6540   12.6425 O.3   1944  HOH1944     0.0000
   1992 O          34.1710   42.4323   54.0092 O.3   1945  HOH1945     0.0000
   1993 O          54.0092   86.8668   78.6055 O.3   1946  HOH1946     0.0000
   1994 O          12.6425   24.2195   34.1710 O.3   1947  HOH1947     0.0000
   1995 O          57.0770   42.4323   76.9152 O.3   1948  HOH1948     0.0000
   1996 O           9.5747   68.6540   32.4807 O.3   1949  HOH1949     0.0000
   1997 O          78.6055    9.5747   42.4323 O.3   1950  HOH1950     0.0000
   1998 O          34.1710   57.0770   68.6540 O.3   1951  HOH1951     0.0000
   1999 O          76.9152   12.6425   86.8668 O.3   1952  HOH1952     0.0000
   2000 O          32.4807   54.0092   24.2195 O.3   1953  HOH1953     0.0000
   2001 O          42.4323   34.1710   54.0092 O.3   1954  HOH1954     0.0000
   2002 O          68.6540   78.6055   12.6425 O.3   1955  HOH1955     0.0000
   2003 O          86.8668   32.4807   57.0770 O.3   1956  HOH1956     0.0000
   2004 O          24.2195   76.9152    9.5747 O.3   1957  HOH1957     0.0000
   2005 O          20.2150   31.7920   54.6980 O.3   1958  HOH1958     0.0000
   2006 O          46.4367   79.2942   10.2635 O.3   1959  HOH1959     0.0000
   2007 O          64.6495   34.8598   56.3883 O.3   1960  HOH1960     0.0000
   2008 O           2.0022   76.2265   11.9538 O.3   1961  HOH1961     0.0000
   2009 O          31.7920   56.3883    2.0022 O.3   1962  HOH1962     0.0000
   2010 O          79.2942   11.9538   64.6495 O.3   1963  HOH1963     0.0000
   2011 O          34.8598   54.6980   46.4367 O.3   1964  HOH1964     0.0000
   2012 O          76.2265   10.2635   20.2150 O.3   1965  HOH1965     0.0000
   2013 O          56.3883   20.2150   79.2942 O.3   1966  HOH1966     0.0000
   2014 O          11.9538   46.4367   31.7920 O.3   1967  HOH1967     0.0000
   2015 O          54.6980   64.6495   76.2265 O.3   1968  HOH1968     0.0000
   2016 O          10.2635    2.0022   34.8598 O.3   1969  HOH1969     0.0000
   2017 O          34.8598    2.0022   10.2635 O.3   1970  HOH1970     0.0000
   2018 O          76.2265   64.6495   54.6980 O.3   1971  HOH1971     0.0000
   2019 O          31.7920   46.4367   11.9538 O.3   1972  HOH1972     0.0000
   2020 O          79.2942   20.2150   56.3883 O.3   1973  HOH1973     0.0000
   2021 O          10.2635   79.2942   46.4367 O.3   1974  HOH1974     0.0000
   2022 O          54.6980   31.7920   20.2150 O.3   1975  HOH1975     0.0000
   2023 O          11.9538   76.2265    2.0022 O.3   1976  HOH1976     0.0000
   2024 O          56.3883   34.8598   64.6495 O.3   1977  HOH1977     0.0000
   2025 O          46.4367   54.6980   34.8598 O.3   1978  HOH1978     0.0000
   2026 O          20.2150   10.2635   76.2265 O.3   1979  HOH1979     0.0000
   2027 O           2.0022   56.3883   31.7920 O.3   1980  HOH1980     0.0000
   2028 O          64.6495   11.9538   79.2942 O.3   1981  HOH1981     0.0000
   2029 O          68.6540   57.0770   34.1710 O.3   1982  HOH1982     0.0000
   2030 O          42.4323    9.5747   78.6055 O.3   1983  HOH1983     0.0000
   2031 O          24.2195   54.0092   32.4807 O.3   1984  HOH1984     0.0000
   2032 O          86.8668   12.6425   76.9152 O.3   1985  HOH1985     0.0000
   2033 O          57.0770   32.4807   86.8668 O.3   1986  HOH1986     0.0000
   2034 O           9.5747   76.9152   24.2195 O.3   1987  HOH1987     0.0000
   2035 O          54.0092   34.1710   42.4323 O.3   1988  HOH1988     0.0000
   2036 O          12.6425   78.6055   68.6540 O.3   1989  HOH1989     0.0000
   2037 O          32.4807   68.6540    9.5747 O.3   1990  HOH1990     0.0000
   2038 O          76.9152   42.4323   57.0770 O.3   1991  HOH1991     0.0000
   2039 O          34.1710   24.2195   12.6425 O.3   1992  HOH1992     0.0000
   2040 O          78.6055   86.8668   54.0092 O.3   1993  HOH1993     0.0000
   2041 O          54.0092   42.4323   34.1710 O.3   1994  HOH1994     0.0000
   2042 O          12.6425   68.6540   78.6055 O.3   1995  HOH1995     0.0000
   2043 O          57.0770   86.8668   32.4807 O.3   1996  HOH1996     0.0000
   2044 O           9.5747   24.2195   76.9152 O.3   1997  HOH1997     0.0000
   2045 O          78.6055   54.0092   86.8668 O.3   1998  HOH1998     0.0000
   2046 O          34.1710   12.6425   24.2195 O.3   1999  HOH1999     0.0000
   2047 O          76.9152   57.0770   42.4323 O.3   2000  HOH2000     0.0000
   2048 O          32.4807    9.5747   68.6540 O.3   2001  HOH2001     0.0000
   2049 O          42.4323   78.6055    9.5747 O.3   2002  HOH2002     0.0000
   2050 O          68.6540   34.1710   57.0770 O.3   2003  HOH2003     0.0000
   2051 O          86.8668   76.9152   12.6425 O.3   2004  HOH2004     0.0000
   2052 O          24.2195   32.4807   54.0092 O.3   2005  HOH2005     0.0000
   2053 O          20.2150   76.2265   10.2635 O.3   2006  HOH2006     0.0000
   2054 O          46.4367   34.8598   54.6980 O.3   2007  HOH2007     0.0000
   2055 O          64.6495   79.2942   11.9538 O.3   2008  HOH2008     0.0000
   2056 O           2.0022   31.7920   56.3883 O.3   2009  HOH2009     0.0000
   2057 O          31.7920   11.9538   46.4367 O.3   2010  HOH2010     0.0000
   2058 O          79.2942   56.3883   20.2150 O.3   2011  HOH2011     0.0000
   2059 O          34.8598   10.2635    2.0022 O.3   2012  HOH2012     0.0000
   2060 O          76.2265   54.6980   64.6495 O.3   2013  HOH2013     0.0000
   2061 O          56.3883   64.6495   34.8598 O.3   2014  HOH2014     0.0000
   2062 O          11.9538    2.0022   76.2265 O.3   2015  HOH2015     0.0000
   2063 O          54.6980   20.2150   31.7920 O.3   2016  HOH2016     0.0000
   2064 O          10.2635   46.4367   79.2942 O.3   2017  HOH2017     0.0000
   2065 O          34.8598   46.4367   54.6980 O.3   2018  HOH2018     0.0000
   2066 O          76.2265   20.2150   10.2635 O.3   2019  HOH2019     0.0000
   2067 O          31.7920    2.0022   56.3883 O.3   2020  HOH2020     0.0000
   2068 O          79.2942   64.6495   11.9538 O.3   2021  HOH2021     0.0000
   2069 O          10.2635   34.8598    2.0022 O.3   2022  HOH2022     0.0000
   2070 O          54.6980   76.2265   64.6495 O.3   2023  HOH2023     0.0000
   2071 O          11.9538   31.7920   46.4367 O.3   2024  HOH2024     0.0000
   2072 O          56.3883   79.2942   20.2150 O.3   2025  HOH2025     0.0000
   2073 O          46.4367   10.2635   79.2942 O.3   2026  HOH2026     0.0000
   2074 O          20.2150   54.6980   31.7920 O.3   2027  HOH2027     0.0000
   2075 O           2.0022   11.9538   76.2265 O.3   2028  HOH2028     0.0000
   2076 O          64.6495   56.3883   34.8598 O.3   2029  HOH2029     0.0000
   2077 O          68.6540   12.6425   78.6055 O.3   2030  HOH2030     0.0000
   2078 O          42.4323   54.0092   34.1710 O.3   2031  HOH2031     0.0000
   2079 O          24.2195    9.5747   76.9152 O.3   2032  HOH2032     0.0000
   2080 O          86.8668   57.0770   32.4807 O.3   2033  HOH2033     0.0000
   2081 O          57.0770   76.9152   42.4323 O.3   2034  HOH2034     0.0000
   2082 O           9.5747   32.4807   68.6540 O.3   2035  HOH2035     0.0000
   2083 O          54.0092   78.6055   86.8668 O.3   2036  HOH2036     0.0000
   2084 O          12.6425   34.1710   24.2195 O.3   2037  HOH2037     0.0000
   2085 O          32.4807   24.2195   54.0092 O.3   2038  HOH2038     0.0000
   2086 O          76.9152   86.8668   12.6425 O.3   2039  HOH2039     0.0000
   2087 O          34.1710   68.6540   57.0770 O.3   2040  HOH2040     0.0000
   2088 O          78.6055   42.4323    9.5747 O.3   2041  HOH2041     0.0000
   2089 O          57.6538   31.2721   77.8066 O.3   2042  HOH2042     0.0000
   2090 O          13.2193   35.3796   33.2797 O.3   2043  HOH2043     0.0000
   2091 O          53.4325   75.7066   77.7142 O.3   2044  HOH2044     0.0000
   2092 O          33.3721    8.9980   79.8141 O.3   2045  HOH2045     0.0000
   2093 O          77.8066   57.6538   31.2721 O.3   2046  HOH2046     0.0000
   2094 O          33.2797   13.2193   35.3796 O.3   2047  HOH2047     0.0000
   2095 O          77.7142   53.4325   75.7066 O.3   2048  HOH2048     0.0000
   2096 O          79.8141   33.3721    8.9980 O.3   2049  HOH2049     0.0000
   2097 O          31.2721   77.8066   57.6538 O.3   2050  HOH2050     0.0000
   2098 O          35.3796   33.2797   13.2193 O.3   2051  HOH2051     0.0000
   2099 O          75.7066   77.7142   53.4325 O.3   2052  HOH2052     0.0000
   2100 O          57.5969   31.2152   11.0624 O.3   2053  HOH2053     0.0000
   2101 O           9.0549   79.8710   55.4969 O.3   2054  HOH2054     0.0000
   2102 O          13.1624   35.4365   11.1548 O.3   2055  HOH2055     0.0000
   2103 O          53.4894   75.6497   55.5893 O.3   2056  HOH2056     0.0000
   2104 O          75.6497   55.5893   53.4894 O.3   2057  HOH2057     0.0000
   2105 O          35.4365   11.1548   13.1624 O.3   2058  HOH2058     0.0000
   2106 O          79.8710   55.4969    9.0549 O.3   2059  HOH2059     0.0000
   2107 O          31.2152   11.0624   57.5969 O.3   2060  HOH2060     0.0000
   2108 O          11.1548   13.1624   35.4365 O.3   2061  HOH2061     0.0000
   2109 O          55.5893   53.4894   75.6497 O.3   2062  HOH2062     0.0000
   2110 O          11.0624   57.5969   31.2152 O.3   2063  HOH2063     0.0000
   2111 O          55.4969    9.0549   79.8710 O.3   2064  HOH2064     0.0000
   2112 O          79.8710    9.0549   55.4969 O.3   2065  HOH2065     0.0000
   2113 O          31.2152   57.5969   11.0624 O.3   2066  HOH2066     0.0000
   2114 O          75.6497   53.4894   55.5893 O.3   2067  HOH2067     0.0000
   2115 O          35.4365   13.1624   11.1548 O.3   2068  HOH2068     0.0000
   2116 O          55.4969   79.8710    9.0549 O.3   2069  HOH2069     0.0000
   2117 O          11.0624   31.2152   57.5969 O.3   2070  HOH2070     0.0000
   2118 O          55.5893   75.6497   53.4894 O.3   2071  HOH2071     0.0000
   2119 O          11.1548   35.4365   13.1624 O.3   2072  HOH2072     0.0000
   2120 O           9.0549   55.4969   79.8710 O.3   2073  HOH2073     0.0000
   2121 O          57.5969   11.0624   31.2152 O.3   2074  HOH2074     0.0000
   2122 O          53.4894   55.5893   75.6497 O.3   2075  HOH2075     0.0000
   2123 O          13.1624   11.1548   35.4365 O.3   2076  HOH2076     0.0000
   2124 O          31.2721   57.6538   77.8066 O.3   2077  HOH2077     0.0000
   2125 O          79.8141    8.9980   33.3721 O.3   2078  HOH2078     0.0000
   2126 O          75.7066   53.4325   77.7142 O.3   2079  HOH2079     0.0000
   2127 O          35.3796   13.2193   33.2797 O.3   2080  HOH2080     0.0000
   2128 O          13.2193   33.2797   35.3796 O.3   2081  HOH2081     0.0000
   2129 O          53.4325   77.7142   75.7066 O.3   2082  HOH2082     0.0000
   2130 O           8.9980   33.3721   79.8141 O.3   2083  HOH2083     0.0000
   2131 O          57.6538   77.8066   31.2721 O.3   2084  HOH2084     0.0000
   2132 O          77.7142   75.7066   53.4325 O.3   2085  HOH2085     0.0000
   2133 O          33.2797   35.3796   13.2193 O.3   2086  HOH2086     0.0000
   2134 O          77.8066   31.2721   57.6538 O.3   2087  HOH2087     0.0000
   2135 O          33.3721   79.8141    8.9980 O.3   2088  HOH2088     0.0000
   2136 O           8.9980   35.3796   77.8066 O.3   2089  HOH2089     0.0000
   2137 O          57.6538   75.7066   33.3721 O.3   2090  HOH2090     0.0000
   2138 O          13.2193   79.8141   77.7142 O.3   2091  HOH2091     0.0000
   2139 O          53.4325   31.2721   33.2797 O.3   2092  HOH2092     0.0000
   2140 O          33.3721   53.4325   35.3796 O.3   2093  HOH2093     0.0000
   2141 O          77.8066   13.2193   75.7066 O.3   2094  HOH2094     0.0000
   2142 O          33.2797   57.6538   79.8141 O.3   2095  HOH2095     0.0000
   2143 O          77.7142    8.9980   31.2721 O.3   2096  HOH2096     0.0000
   2144 O          79.8141   77.8066   53.4325 O.3   2097  HOH2097     0.0000
   2145 O          31.2721   33.3721   13.2193 O.3   2098  HOH2098     0.0000
   2146 O          35.3796   77.7142   57.6538 O.3   2099  HOH2099     0.0000
   2147 O          75.7066   33.2797    8.9980 O.3   2100  HOH2100     0.0000
   2148 O          57.5969   75.6497   55.4969 O.3   2101  HOH2101     0.0000
   2149 O           9.0549   35.4365   11.0624 O.3   2102  HOH2102     0.0000
   2150 O          13.1624   79.8710   55.5893 O.3   2103  HOH2103     0.0000
   2151 O          53.4894   31.2152   11.1548 O.3   2104  HOH2104     0.0000
   2152 O          75.6497   11.1548    9.0549 O.3   2105  HOH2105     0.0000
   2153 O          35.4365   55.5893   57.5969 O.3   2106  HOH2106     0.0000
   2154 O          79.8710   11.0624   53.4894 O.3   2107  HOH2107     0.0000
   2155 O          31.2152   55.4969   13.1624 O.3   2108  HOH2108     0.0000
   2156 O          11.1548   57.5969   79.8710 O.3   2109  HOH2109     0.0000
   2157 O          55.5893    9.0549   31.2152 O.3   2110  HOH2110     0.0000
   2158 O          11.0624   13.1624   75.6497 O.3   2111  HOH2111     0.0000
   2159 O          55.4969   53.4894   35.4365 O.3   2112  HOH2112     0.0000
   2160 O          79.8710   53.4894   11.0624 O.3   2113  HOH2113     0.0000
   2161 O          31.2152   13.1624   55.4969 O.3   2114  HOH2114     0.0000
   2162 O          75.6497    9.0549   11.1548 O.3   2115  HOH2115     0.0000
   2163 O          35.4365   57.5969   55.5893 O.3   2116  HOH2116     0.0000
   2164 O          55.4969   35.4365   53.4894 O.3   2117  HOH2117     0.0000
   2165 O          11.0624   75.6497   13.1624 O.3   2118  HOH2118     0.0000
   2166 O          55.5893   31.2152    9.0549 O.3   2119  HOH2119     0.0000
   2167 O          11.1548   79.8710   57.5969 O.3   2120  HOH2120     0.0000
   2168 O           9.0549   11.0624   35.4365 O.3   2121  HOH2121     0.0000
   2169 O          57.5969   55.4969   75.6497 O.3   2122  HOH2122     0.0000
   2170 O          53.4894   11.1548   31.2152 O.3   2123  HOH2123     0.0000
   2171 O          13.1624   55.5893   79.8710 O.3   2124  HOH2124     0.0000
   2172 O          31.2721   13.2193   33.3721 O.3   2125  HOH2125     0.0000
   2173 O          79.8141   53.4325   77.8066 O.3   2126  HOH2126     0.0000
   2174 O          75.7066    8.9980   33.2797 O.3   2127  HOH2127     0.0000
   2175 O          35.3796   57.6538   77.7142 O.3   2128  HOH2128     0.0000
   2176 O          13.2193   77.7142   79.8141 O.3   2129  HOH2129     0.0000
   2177 O          53.4325   33.2797   31.2721 O.3   2130  HOH2130     0.0000
   2178 O           8.9980   77.8066   35.3796 O.3   2131  HOH2131     0.0000
   2179 O          57.6538   33.3721   75.7066 O.3   2132  HOH2132     0.0000
   2180 O          77.7142   31.2721    8.9980 O.3   2133  HOH2133     0.0000
   2181 O          33.2797   79.8141   57.6538 O.3   2134  HOH2134     0.0000
   2182 O          77.8066   75.7066   13.2193 O.3   2135  HOH2135     0.0000
   2183 O          33.3721   35.3796   53.4325 O.3   2136  HOH2136     0.0000
   2184 O          53.4325   79.8141   77.8066 O.3   2137  HOH2137     0.0000
   2185 O          13.2193   31.2721   33.3721 O.3   2138  HOH2138     0.0000
   2186 O          57.6538   35.3796   77.7142 O.3   2139  HOH2139     0.0000
   2187 O           8.9980   75.7066   33.2797 O.3   2140  HOH2140     0.0000
   2188 O          77.8066    8.9980   35.3796 O.3   2141  HOH2141     0.0000
   2189 O          33.3721   57.6538   75.7066 O.3   2142  HOH2142     0.0000
   2190 O          77.7142   13.2193   79.8141 O.3   2143  HOH2143     0.0000
   2191 O          33.2797   53.4325   31.2721 O.3   2144  HOH2144     0.0000
   2192 O          35.3796   33.3721   53.4325 O.3   2145  HOH2145     0.0000
   2193 O          75.7066   77.8066   13.2193 O.3   2146  HOH2146     0.0000
   2194 O          79.8141   33.2797   57.6538 O.3   2147  HOH2147     0.0000
   2195 O          31.2721   77.7142    8.9980 O.3   2148  HOH2148     0.0000
   2196 O          13.1624   31.2152   55.4969 O.3   2149  HOH2149     0.0000
   2197 O          53.4894   79.8710   11.0624 O.3   2150  HOH2150     0.0000
   2198 O          57.5969   35.4365   55.5893 O.3   2151  HOH2151     0.0000
   2199 O           9.0549   75.6497   11.1548 O.3   2152  HOH2152     0.0000
   2200 O          31.2152   55.5893    9.0549 O.3   2153  HOH2153     0.0000
   2201 O          79.8710   11.1548   57.5969 O.3   2154  HOH2154     0.0000
   2202 O          35.4365   55.4969   53.4894 O.3   2155  HOH2155     0.0000
   2203 O          75.6497   11.0624   13.1624 O.3   2156  HOH2156     0.0000
   2204 O          55.5893   13.1624   79.8710 O.3   2157  HOH2157     0.0000
   2205 O          11.1548   53.4894   31.2152 O.3   2158  HOH2158     0.0000
   2206 O          55.4969   57.5969   75.6497 O.3   2159  HOH2159     0.0000
   2207 O          11.0624    9.0549   35.4365 O.3   2160  HOH2160     0.0000
   2208 O          35.4365    9.0549   11.0624 O.3   2161  HOH2161     0.0000
   2209 O          75.6497   57.5969   55.4969 O.3   2162  HOH2162     0.0000
   2210 O          31.2152   53.4894   11.1548 O.3   2163  HOH2163     0.0000
   2211 O          79.8710   13.1624   55.5893 O.3   2164  HOH2164     0.0000
   2212 O          11.0624   79.8710   53.4894 O.3   2165  HOH2165     0.0000
   2213 O          55.4969   31.2152   13.1624 O.3   2166  HOH2166     0.0000
   2214 O          11.1548   75.6497    9.0549 O.3   2167  HOH2167     0.0000
   2215 O          55.5893   35.4365   57.5969 O.3   2168  HOH2168     0.0000
   2216 O          53.4894   55.4969   35.4365 O.3   2169  HOH2169     0.0000
   2217 O          13.1624   11.0624   75.6497 O.3   2170  HOH2170     0.0000
   2218 O           9.0549   55.5893   31.2152 O.3   2171  HOH2171     0.0000
   2219 O          57.5969   11.1548   79.8710 O.3   2172  HOH2172     0.0000
   2220 O          75.7066   57.6538   33.3721 O.3   2173  HOH2173     0.0000
   2221 O          35.3796    8.9980   77.8066 O.3   2174  HOH2174     0.0000
   2222 O          31.2721   53.4325   33.2797 O.3   2175  HOH2175     0.0000
   2223 O          79.8141   13.2193   77.7142 O.3   2176  HOH2176     0.0000
   2224 O          57.6538   33.2797   79.8141 O.3   2177  HOH2177     0.0000
   2225 O           8.9980   77.7142   31.2721 O.3   2178  HOH2178     0.0000
   2226 O          53.4325   33.3721   35.3796 O.3   2179  HOH2179     0.0000
   2227 O          13.2193   77.8066   75.7066 O.3   2180  HOH2180     0.0000
   2228 O          33.2797   75.7066    8.9980 O.3   2181  HOH2181     0.0000
   2229 O          77.7142   35.3796   57.6538 O.3   2182  HOH2182     0.0000
   2230 O          33.3721   31.2721   13.2193 O.3   2183  HOH2183     0.0000
   2231 O          77.8066   79.8141   53.4325 O.3   2184  HOH2184     0.0000
   2232 O          53.4325   35.3796   33.3721 O.3   2185  HOH2185     0.0000
   2233 O          13.2193   75.7066   77.8066 O.3   2186  HOH2186     0.0000
   2234 O          57.6538   79.8141   33.2797 O.3   2187  HOH2187     0.0000
   2235 O           8.9980   31.2721   77.7142 O.3   2188  HOH2188     0.0000
   2236 O          77.8066   53.4325   79.8141 O.3   2189  HOH2189     0.0000
   2237 O          33.3721   13.2193   31.2721 O.3   2190  HOH2190     0.0000
   2238 O          77.7142   57.6538   35.3796 O.3   2191  HOH2191     0.0000
   2239 O          33.2797    8.9980   75.7066 O.3   2192  HOH2192     0.0000
   2240 O          35.3796   77.8066    8.9980 O.3   2193  HOH2193     0.0000
   2241 O          75.7066   33.3721   57.6538 O.3   2194  HOH2194     0.0000
   2242 O          79.8141   77.7142   13.2193 O.3   2195  HOH2195     0.0000
   2243 O          31.2721   33.2797   53.4325 O.3   2196  HOH2196     0.0000
   2244 O          13.1624   75.6497   11.0624 O.3   2197  HOH2197     0.0000
   2245 O          53.4894   35.4365   55.4969 O.3   2198  HOH2198     0.0000
   2246 O          57.5969   79.8710   11.1548 O.3   2199  HOH2199     0.0000
   2247 O           9.0549   31.2152   55.5893 O.3   2200  HOH2200     0.0000
   2248 O          31.2152   11.1548   53.4894 O.3   2201  HOH2201     0.0000
   2249 O          79.8710   55.5893   13.1624 O.3   2202  HOH2202     0.0000
   2250 O          35.4365   11.0624    9.0549 O.3   2203  HOH2203     0.0000
   2251 O          75.6497   55.4969   57.5969 O.3   2204  HOH2204     0.0000
   2252 O          55.5893   57.5969   35.4365 O.3   2205  HOH2205     0.0000
   2253 O          11.1548    9.0549   75.6497 O.3   2206  HOH2206     0.0000
   2254 O          55.4969   13.1624   31.2152 O.3   2207  HOH2207     0.0000
   2255 O          11.0624   53.4894   79.8710 O.3   2208  HOH2208     0.0000
   2256 O          35.4365   53.4894   55.4969 O.3   2209  HOH2209     0.0000
   2257 O          75.6497   13.1624   11.0624 O.3   2210  HOH2210     0.0000
   2258 O          31.2152    9.0549   55.5893 O.3   2211  HOH2211     0.0000
   2259 O          79.8710   57.5969   11.1548 O.3   2212  HOH2212     0.0000
   2260 O          11.0624   35.4365    9.0549 O.3   2213  HOH2213     0.0000
   2261 O          55.4969   75.6497   57.5969 O.3   2214  HOH2214     0.0000
   2262 O          11.1548   31.2152   53.4894 O.3   2215  HOH2215     0.0000
   2263 O          55.5893   79.8710   13.1624 O.3   2216  HOH2216     0.0000
   2264 O          53.4894   11.0624   79.8710 O.3   2217  HOH2217     0.0000
   2265 O          13.1624   55.4969   31.2152 O.3   2218  HOH2218     0.0000
   2266 O           9.0549   11.1548   75.6497 O.3   2219  HOH2219     0.0000
   2267 O          57.5969   55.5893   35.4365 O.3   2220  HOH2220     0.0000
   2268 O          75.7066   13.2193   77.8066 O.3   2221  HOH2221     0.0000
   2269 O          35.3796   53.4325   33.3721 O.3   2222  HOH2222     0.0000
   2270 O          31.2721    8.9980   77.7142 O.3   2223  HOH2223     0.0000
   2271 O          79.8141   57.6538   33.2797 O.3   2224  HOH2224     0.0000
   2272 O          57.6538   77.7142   35.3796 O.3   2225  HOH2225     0.0000
   2273 O           8.9980   33.2797   75.7066 O.3   2226  HOH2226     0.0000
   2274 O          53.4325   77.8066   79.8141 O.3   2227  HOH2227     0.0000
   2275 O          13.2193   33.3721   31.2721 O.3   2228  HOH2228     0.0000
   2276 O          33.2797   31.2721   53.4325 O.3   2229  HOH2229     0.0000
   2277 O          77.7142   79.8141   13.2193 O.3   2230  HOH2230     0.0000
   2278 O          33.3721   75.7066   57.6538 O.3   2231  HOH2231     0.0000
   2279 O          77.8066   35.3796    8.9980 O.3   2232  HOH2232     0.0000
   2280 O          55.7280   30.4883   76.9881 O.3   2233  HOH2233     0.0000
   2281 O          11.2935   36.1635   34.0981 O.3   2234  HOH2234     0.0000
   2282 O          55.3583   74.9228   78.5326 O.3   2235  HOH2235     0.0000
   2283 O          32.5536   10.9238   80.5980 O.3   2236  HOH2236     0.0000
   2284 O          76.9881   55.7280   30.4883 O.3   2237  HOH2237     0.0000
   2285 O          34.0981   11.2935   36.1635 O.3   2238  HOH2238     0.0000
   2286 O          78.5326   55.3583   74.9228 O.3   2239  HOH2239     0.0000
   2287 O          80.5980   32.5536   10.9238 O.3   2240  HOH2240     0.0000
   2288 O          30.4883   76.9881   55.7280 O.3   2241  HOH2241     0.0000
   2289 O          36.1635   34.0981   11.2935 O.3   2242  HOH2242     0.0000
   2290 O          74.9228   78.5326   55.3583 O.3   2243  HOH2243     0.0000
   2291 O          58.3807   33.1410   11.8809 O.3   2244  HOH2244     0.0000
   2292 O           8.2710   77.9452   56.3154 O.3   2245  HOH2245     0.0000
   2293 O          13.9462   33.5107   10.3364 O.3   2246  HOH2246     0.0000
   2294 O          52.7055   77.5755   54.7708 O.3   2247  HOH2247     0.0000
   2295 O          77.5755   54.7708   52.7055 O.3   2248  HOH2248     0.0000
   2296 O          33.5107   10.3364   13.9462 O.3   2249  HOH2249     0.0000
   2297 O          77.9452   56.3154    8.2710 O.3   2250  HOH2250     0.0000
   2298 O          33.1410   11.8809   58.3807 O.3   2251  HOH2251     0.0000
   2299 O          10.3364   13.9462   33.5107 O.3   2252  HOH2252     0.0000
   2300 O          54.7708   52.7055   77.5755 O.3   2253  HOH2253     0.0000
   2301 O          11.8809   58.3807   33.1410 O.3   2254  HOH2254     0.0000
   2302 O          56.3154    8.2710   77.9452 O.3   2255  HOH2255     0.0000
   2303 O          77.9452    8.2710   56.3154 O.3   2256  HOH2256     0.0000
   2304 O          33.1410   58.3807   11.8809 O.3   2257  HOH2257     0.0000
   2305 O          77.5755   52.7055   54.7708 O.3   2258  HOH2258     0.0000
   2306 O          33.5107   13.9462   10.3364 O.3   2259  HOH2259     0.0000
   2307 O          56.3154   77.9452    8.2710 O.3   2260  HOH2260     0.0000
   2308 O          11.8809   33.1410   58.3807 O.3   2261  HOH2261     0.0000
   2309 O          54.7708   77.5755   52.7055 O.3   2262  HOH2262     0.0000
   2310 O          10.3364   33.5107   13.9462 O.3   2263  HOH2263     0.0000
   2311 O           8.2710   56.3154   77.9452 O.3   2264  HOH2264     0.0000
   2312 O          58.3807   11.8809   33.1410 O.3   2265  HOH2265     0.0000
   2313 O          52.7055   54.7708   77.5755 O.3   2266  HOH2266     0.0000
   2314 O          13.9462   10.3364   33.5107 O.3   2267  HOH2267     0.0000
   2315 O          30.4883   55.7280   76.9881 O.3   2268  HOH2268     0.0000
   2316 O          80.5980   10.9238   32.5536 O.3   2269  HOH2269     0.0000
   2317 O          74.9228   55.3583   78.5326 O.3   2270  HOH2270     0.0000
   2318 O          36.1635   11.2935   34.0981 O.3   2271  HOH2271     0.0000
   2319 O          11.2935   34.0981   36.1635 O.3   2272  HOH2272     0.0000
   2320 O          55.3583   78.5326   74.9228 O.3   2273  HOH2273     0.0000
   2321 O          10.9238   32.5536   80.5980 O.3   2274  HOH2274     0.0000
   2322 O          55.7280   76.9881   30.4883 O.3   2275  HOH2275     0.0000
   2323 O          78.5326   74.9228   55.3583 O.3   2276  HOH2276     0.0000
   2324 O          34.0981   36.1635   11.2935 O.3   2277  HOH2277     0.0000
   2325 O          76.9881   30.4883   55.7280 O.3   2278  HOH2278     0.0000
   2326 O          32.5536   80.5980   10.9238 O.3   2279  HOH2279     0.0000
   2327 O          10.9238   36.1635   76.9881 O.3   2280  HOH2280     0.0000
   2328 O          55.7280   74.9228   32.5536 O.3   2281  HOH2281     0.0000
   2329 O          11.2935   80.5980   78.5326 O.3   2282  HOH2282     0.0000
   2330 O          55.3583   30.4883   34.0981 O.3   2283  HOH2283     0.0000
   2331 O          32.5536   55.3583   36.1635 O.3   2284  HOH2284     0.0000
   2332 O          76.9881   11.2935   74.9228 O.3   2285  HOH2285     0.0000
   2333 O          34.0981   55.7280   80.5980 O.3   2286  HOH2286     0.0000
   2334 O          78.5326   10.9238   30.4883 O.3   2287  HOH2287     0.0000
   2335 O          80.5980   76.9881   55.3583 O.3   2288  HOH2288     0.0000
   2336 O          30.4883   32.5536   11.2935 O.3   2289  HOH2289     0.0000
   2337 O          36.1635   78.5326   55.7280 O.3   2290  HOH2290     0.0000
   2338 O          74.9228   34.0981   10.9238 O.3   2291  HOH2291     0.0000
   2339 O          58.3807   77.5755   56.3154 O.3   2292  HOH2292     0.0000
   2340 O           8.2710   33.5107   11.8809 O.3   2293  HOH2293     0.0000
   2341 O          13.9462   77.9452   54.7708 O.3   2294  HOH2294     0.0000
   2342 O          52.7055   33.1410   10.3364 O.3   2295  HOH2295     0.0000
   2343 O          77.5755   10.3364    8.2710 O.3   2296  HOH2296     0.0000
   2344 O          33.5107   54.7708   58.3807 O.3   2297  HOH2297     0.0000
   2345 O          77.9452   11.8809   52.7055 O.3   2298  HOH2298     0.0000
   2346 O          33.1410   56.3154   13.9462 O.3   2299  HOH2299     0.0000
   2347 O          10.3364   58.3807   77.9452 O.3   2300  HOH2300     0.0000
   2348 O          54.7708    8.2710   33.1410 O.3   2301  HOH2301     0.0000
   2349 O          11.8809   13.9462   77.5755 O.3   2302  HOH2302     0.0000
   2350 O          56.3154   52.7055   33.5107 O.3   2303  HOH2303     0.0000
   2351 O          77.9452   52.7055   11.8809 O.3   2304  HOH2304     0.0000
   2352 O          33.1410   13.9462   56.3154 O.3   2305  HOH2305     0.0000
   2353 O          77.5755    8.2710   10.3364 O.3   2306  HOH2306     0.0000
   2354 O          33.5107   58.3807   54.7708 O.3   2307  HOH2307     0.0000
   2355 O          56.3154   33.5107   52.7055 O.3   2308  HOH2308     0.0000
   2356 O          11.8809   77.5755   13.9462 O.3   2309  HOH2309     0.0000
   2357 O          54.7708   33.1410    8.2710 O.3   2310  HOH2310     0.0000
   2358 O          10.3364   77.9452   58.3807 O.3   2311  HOH2311     0.0000
   2359 O           8.2710   11.8809   33.5107 O.3   2312  HOH2312     0.0000
   2360 O          58.3807   56.3154   77.5755 O.3   2313  HOH2313     0.0000
   2361 O          52.7055   10.3364   33.1410 O.3   2314  HOH2314     0.0000
   2362 O          13.9462   54.7708   77.9452 O.3   2315  HOH2315     0.0000
   2363 O          30.4883   11.2935   32.5536 O.3   2316  HOH2316     0.0000
   2364 O          80.5980   55.3583   76.9881 O.3   2317  HOH2317     0.0000
   2365 O          74.9228   10.9238   34.0981 O.3   2318  HOH2318     0.0000
   2366 O          36.1635   55.7280   78.5326 O.3   2319  HOH2319     0.0000
   2367 O          11.2935   78.5326   80.5980 O.3   2320  HOH2320     0.0000
   2368 O          55.3583   34.0981   30.4883 O.3   2321  HOH2321     0.0000
   2369 O          10.9238   76.9881   36.1635 O.3   2322  HOH2322     0.0000
   2370 O          55.7280   32.5536   74.9228 O.3   2323  HOH2323     0.0000
   2371 O          78.5326   30.4883   10.9238 O.3   2324  HOH2324     0.0000
   2372 O          34.0981   80.5980   55.7280 O.3   2325  HOH2325     0.0000
   2373 O          76.9881   74.9228   11.2935 O.3   2326  HOH2326     0.0000
   2374 O          32.5536   36.1635   55.3583 O.3   2327  HOH2327     0.0000
   2375 O          55.3583   80.5980   76.9881 O.3   2328  HOH2328     0.0000
   2376 O          11.2935   30.4883   32.5536 O.3   2329  HOH2329     0.0000
   2377 O          55.7280   36.1635   78.5326 O.3   2330  HOH2330     0.0000
   2378 O          10.9238   74.9228   34.0981 O.3   2331  HOH2331     0.0000
   2379 O          76.9881   10.9238   36.1635 O.3   2332  HOH2332     0.0000
   2380 O          32.5536   55.7280   74.9228 O.3   2333  HOH2333     0.0000
   2381 O          78.5326   11.2935   80.5980 O.3   2334  HOH2334     0.0000
   2382 O          34.0981   55.3583   30.4883 O.3   2335  HOH2335     0.0000
   2383 O          36.1635   32.5536   55.3583 O.3   2336  HOH2336     0.0000
   2384 O          74.9228   76.9881   11.2935 O.3   2337  HOH2337     0.0000
   2385 O          80.5980   34.0981   55.7280 O.3   2338  HOH2338     0.0000
   2386 O          30.4883   78.5326   10.9238 O.3   2339  HOH2339     0.0000
   2387 O          13.9462   33.1410   56.3154 O.3   2340  HOH2340     0.0000
   2388 O          52.7055   77.9452   11.8809 O.3   2341  HOH2341     0.0000
   2389 O          58.3807   33.5107   54.7708 O.3   2342  HOH2342     0.0000
   2390 O           8.2710   77.5755   10.3364 O.3   2343  HOH2343     0.0000
   2391 O          33.1410   54.7708    8.2710 O.3   2344  HOH2344     0.0000
   2392 O          77.9452   10.3364   58.3807 O.3   2345  HOH2345     0.0000
   2393 O          33.5107   56.3154   52.7055 O.3   2346  HOH2346     0.0000
   2394 O          77.5755   11.8809   13.9462 O.3   2347  HOH2347     0.0000
   2395 O          54.7708   13.9462   77.9452 O.3   2348  HOH2348     0.0000
   2396 O          10.3364   52.7055   33.1410 O.3   2349  HOH2349     0.0000
   2397 O          56.3154   58.3807   77.5755 O.3   2350  HOH2350     0.0000
   2398 O          11.8809    8.2710   33.5107 O.3   2351  HOH2351     0.0000
   2399 O          33.5107    8.2710   11.8809 O.3   2352  HOH2352     0.0000
   2400 O          77.5755   58.3807   56.3154 O.3   2353  HOH2353     0.0000
   2401 O          33.1410   52.7055   10.3364 O.3   2354  HOH2354     0.0000
   2402 O          77.9452   13.9462   54.7708 O.3   2355  HOH2355     0.0000
   2403 O          11.8809   77.9452   52.7055 O.3   2356  HOH2356     0.0000
   2404 O          56.3154   33.1410   13.9462 O.3   2357  HOH2357     0.0000
   2405 O          10.3364   77.5755    8.2710 O.3   2358  HOH2358     0.0000
   2406 O          54.7708   33.5107   58.3807 O.3   2359  HOH2359     0.0000
   2407 O          52.7055   56.3154   33.5107 O.3   2360  HOH2360     0.0000
   2408 O          13.9462   11.8809   77.5755 O.3   2361  HOH2361     0.0000
   2409 O           8.2710   54.7708   33.1410 O.3   2362  HOH2362     0.0000
   2410 O          58.3807   10.3364   77.9452 O.3   2363  HOH2363     0.0000
   2411 O          74.9228   55.7280   32.5536 O.3   2364  HOH2364     0.0000
   2412 O          36.1635   10.9238   76.9881 O.3   2365  HOH2365     0.0000
   2413 O          30.4883   55.3583   34.0981 O.3   2366  HOH2366     0.0000
   2414 O          80.5980   11.2935   78.5326 O.3   2367  HOH2367     0.0000
   2415 O          55.7280   34.0981   80.5980 O.3   2368  HOH2368     0.0000
   2416 O          10.9238   78.5326   30.4883 O.3   2369  HOH2369     0.0000
   2417 O          55.3583   32.5536   36.1635 O.3   2370  HOH2370     0.0000
   2418 O          11.2935   76.9881   74.9228 O.3   2371  HOH2371     0.0000
   2419 O          34.0981   74.9228   10.9238 O.3   2372  HOH2372     0.0000
   2420 O          78.5326   36.1635   55.7280 O.3   2373  HOH2373     0.0000
   2421 O          32.5536   30.4883   11.2935 O.3   2374  HOH2374     0.0000
   2422 O          76.9881   80.5980   55.3583 O.3   2375  HOH2375     0.0000
   2423 O          55.3583   36.1635   32.5536 O.3   2376  HOH2376     0.0000
   2424 O          11.2935   74.9228   76.9881 O.3   2377  HOH2377     0.0000
   2425 O          55.7280   80.5980   34.0981 O.3   2378  HOH2378     0.0000
   2426 O          10.9238   30.4883   78.5326 O.3   2379  HOH2379     0.0000
   2427 O          76.9881   55.3583   80.5980 O.3   2380  HOH2380     0.0000
   2428 O          32.5536   11.2935   30.4883 O.3   2381  HOH2381     0.0000
   2429 O          78.5326   55.7280   36.1635 O.3   2382  HOH2382     0.0000
   2430 O          34.0981   10.9238   74.9228 O.3   2383  HOH2383     0.0000
   2431 O          36.1635   76.9881   10.9238 O.3   2384  HOH2384     0.0000
   2432 O          74.9228   32.5536   55.7280 O.3   2385  HOH2385     0.0000
   2433 O          80.5980   78.5326   11.2935 O.3   2386  HOH2386     0.0000
   2434 O          30.4883   34.0981   55.3583 O.3   2387  HOH2387     0.0000
   2435 O          13.9462   77.5755   11.8809 O.3   2388  HOH2388     0.0000
   2436 O          52.7055   33.5107   56.3154 O.3   2389  HOH2389     0.0000
   2437 O          58.3807   77.9452   10.3364 O.3   2390  HOH2390     0.0000
   2438 O           8.2710   33.1410   54.7708 O.3   2391  HOH2391     0.0000
   2439 O          33.1410   10.3364   52.7055 O.3   2392  HOH2392     0.0000
   2440 O          77.9452   54.7708   13.9462 O.3   2393  HOH2393     0.0000
   2441 O          33.5107   11.8809    8.2710 O.3   2394  HOH2394     0.0000
   2442 O          77.5755   56.3154   58.3807 O.3   2395  HOH2395     0.0000
   2443 O          54.7708   58.3807   33.5107 O.3   2396  HOH2396     0.0000
   2444 O          10.3364    8.2710   77.5755 O.3   2397  HOH2397     0.0000
   2445 O          56.3154   13.9462   33.1410 O.3   2398  HOH2398     0.0000
   2446 O          11.8809   52.7055   77.9452 O.3   2399  HOH2399     0.0000
   2447 O          33.5107   52.7055   56.3154 O.3   2400  HOH2400     0.0000
   2448 O          77.5755   13.9462   11.8809 O.3   2401  HOH2401     0.0000
   2449 O          33.1410    8.2710   54.7708 O.3   2402  HOH2402     0.0000
   2450 O          77.9452   58.3807   10.3364 O.3   2403  HOH2403     0.0000
   2451 O          11.8809   33.5107    8.2710 O.3   2404  HOH2404     0.0000
   2452 O          56.3154   77.5755   58.3807 O.3   2405  HOH2405     0.0000
   2453 O          10.3364   33.1410   52.7055 O.3   2406  HOH2406     0.0000
   2454 O          54.7708   77.9452   13.9462 O.3   2407  HOH2407     0.0000
   2455 O          52.7055   11.8809   77.9452 O.3   2408  HOH2408     0.0000
   2456 O          13.9462   56.3154   33.1410 O.3   2409  HOH2409     0.0000
   2457 O           8.2710   10.3364   77.5755 O.3   2410  HOH2410     0.0000
   2458 O          58.3807   54.7708   33.5107 O.3   2411  HOH2411     0.0000
   2459 O          74.9228   11.2935   76.9881 O.3   2412  HOH2412     0.0000
   2460 O          36.1635   55.3583   32.5536 O.3   2413  HOH2413     0.0000
   2461 O          30.4883   10.9238   78.5326 O.3   2414  HOH2414     0.0000
   2462 O          80.5980   55.7280   34.0981 O.3   2415  HOH2415     0.0000
   2463 O          55.7280   78.5326   36.1635 O.3   2416  HOH2416     0.0000
   2464 O          10.9238   34.0981   74.9228 O.3   2417  HOH2417     0.0000
   2465 O          55.3583   76.9881   80.5980 O.3   2418  HOH2418     0.0000
   2466 O          11.2935   32.5536   30.4883 O.3   2419  HOH2419     0.0000
   2467 O          34.0981   30.4883   55.3583 O.3   2420  HOH2420     0.0000
   2468 O          78.5326   80.5980   11.2935 O.3   2421  HOH2421     0.0000
   2469 O          32.5536   74.9228   55.7280 O.3   2422  HOH2422     0.0000
   2470 O          76.9881   36.1635   10.9238 O.3   2423  HOH2423     0.0000
   2471 O           5.0104   27.4703   37.4983 O.3   2424  HOH2424     0.0000
   2472 O          49.4449   39.1814   73.5880 O.3   2425  HOH2425     0.0000
   2473 O          17.2068   71.9048   29.1535 O.3   2426  HOH2426     0.0000
   2474 O          81.9328   61.6413   83.6159 O.3   2427  HOH2427     0.0000
   2475 O          37.4983    5.0104   27.4703 O.3   2428  HOH2428     0.0000
   2476 O          73.5880   49.4449   39.1814 O.3   2429  HOH2429     0.0000
   2477 O          29.1535   17.2068   71.9048 O.3   2430  HOH2430     0.0000
   2478 O          83.6159   81.9328   61.6413 O.3   2431  HOH2431     0.0000
   2479 O          27.4703   37.4983    5.0104 O.3   2432  HOH2432     0.0000
   2480 O          39.1814   73.5880   49.4449 O.3   2433  HOH2433     0.0000
   2481 O          71.9048   29.1535   17.2068 O.3   2434  HOH2434     0.0000
   2482 O          61.3987   83.8586   51.3707 O.3   2435  HOH2435     0.0000
   2483 O           5.2530   27.2277    6.9362 O.3   2436  HOH2436     0.0000
   2484 O          16.9642   71.6622   59.7155 O.3   2437  HOH2437     0.0000
   2485 O          49.6875   39.4241   15.2810 O.3   2438  HOH2438     0.0000
   2486 O          39.4241   15.2810   49.6875 O.3   2439  HOH2439     0.0000
   2487 O          71.6622   59.7155   16.9642 O.3   2440  HOH2440     0.0000
   2488 O          27.2277    6.9362    5.2530 O.3   2441  HOH2441     0.0000
   2489 O          83.8586   51.3707   61.3987 O.3   2442  HOH2442     0.0000
   2490 O          59.7155   16.9642   71.6622 O.3   2443  HOH2443     0.0000
   2491 O          15.2810   49.6875   39.4241 O.3   2444  HOH2444     0.0000
   2492 O          51.3707   61.3987   83.8586 O.3   2445  HOH2445     0.0000
   2493 O           6.9362    5.2530   27.2277 O.3   2446  HOH2446     0.0000
   2494 O          27.2277    5.2530    6.9362 O.3   2447  HOH2447     0.0000
   2495 O          83.8586   61.3987   51.3707 O.3   2448  HOH2448     0.0000
   2496 O          39.4241   49.6875   15.2810 O.3   2449  HOH2449     0.0000
   2497 O          71.6622   16.9642   59.7155 O.3   2450  HOH2450     0.0000
   2498 O           6.9362   27.2277    5.2530 O.3   2451  HOH2451     0.0000
   2499 O          51.3707   83.8586   61.3987 O.3   2452  HOH2452     0.0000
   2500 O          15.2810   39.4241   49.6875 O.3   2453  HOH2453     0.0000
   2501 O          59.7155   71.6622   16.9642 O.3   2454  HOH2454     0.0000
   2502 O           5.2530    6.9362   27.2277 O.3   2455  HOH2455     0.0000
   2503 O          61.3987   51.3707   83.8586 O.3   2456  HOH2456     0.0000
   2504 O          49.6875   15.2810   39.4241 O.3   2457  HOH2457     0.0000
   2505 O          16.9642   59.7155   71.6622 O.3   2458  HOH2458     0.0000
   2506 O          27.4703    5.0104   37.4983 O.3   2459  HOH2459     0.0000
   2507 O          83.6159   61.6413   81.9328 O.3   2460  HOH2460     0.0000
   2508 O          71.9048   17.2068   29.1535 O.3   2461  HOH2461     0.0000
   2509 O          39.1814   49.4449   73.5880 O.3   2462  HOH2462     0.0000
   2510 O          49.4449   73.5880   39.1814 O.3   2463  HOH2463     0.0000
   2511 O          17.2068   29.1535   71.9048 O.3   2464  HOH2464     0.0000
   2512 O          61.6413   81.9328   83.6159 O.3   2465  HOH2465     0.0000
   2513 O           5.0104   37.4983   27.4703 O.3   2466  HOH2466     0.0000
   2514 O          29.1535   71.9048   17.2068 O.3   2467  HOH2467     0.0000
   2515 O          73.5880   39.1814   49.4449 O.3   2468  HOH2468     0.0000
   2516 O          37.4983   27.4703    5.0104 O.3   2469  HOH2469     0.0000
   2517 O          81.9328   83.6159   61.6413 O.3   2470  HOH2470     0.0000
   2518 O          61.6413   39.1814   37.4983 O.3   2471  HOH2471     0.0000
   2519 O           5.0104   71.9048   81.9328 O.3   2472  HOH2472     0.0000
   2520 O          49.4449   83.6159   29.1535 O.3   2473  HOH2473     0.0000
   2521 O          17.2068   27.4703   73.5880 O.3   2474  HOH2474     0.0000
   2522 O          81.9328   17.2068   39.1814 O.3   2475  HOH2475     0.0000
   2523 O          37.4983   49.4449   71.9048 O.3   2476  HOH2476     0.0000
   2524 O          73.5880    5.0104   83.6159 O.3   2477  HOH2477     0.0000
   2525 O          29.1535   61.6413   27.4703 O.3   2478  HOH2478     0.0000
   2526 O          83.6159   37.4983   17.2068 O.3   2479  HOH2479     0.0000
   2527 O          27.4703   81.9328   49.4449 O.3   2480  HOH2480     0.0000
   2528 O          39.1814   29.1535    5.0104 O.3   2481  HOH2481     0.0000
   2529 O          71.9048   73.5880   61.6413 O.3   2482  HOH2482     0.0000
   2530 O          61.3987   39.4241    6.9362 O.3   2483  HOH2483     0.0000
   2531 O           5.2530   71.6622   51.3707 O.3   2484  HOH2484     0.0000
   2532 O          16.9642   27.2277   15.2810 O.3   2485  HOH2485     0.0000
   2533 O          49.6875   83.8586   59.7155 O.3   2486  HOH2486     0.0000
   2534 O          39.4241   59.7155    5.2530 O.3   2487  HOH2487     0.0000
   2535 O          71.6622   15.2810   61.3987 O.3   2488  HOH2488     0.0000
   2536 O          27.2277   51.3707   49.6875 O.3   2489  HOH2489     0.0000
   2537 O          83.8586    6.9362   16.9642 O.3   2490  HOH2490     0.0000
   2538 O          59.7155   61.3987   27.2277 O.3   2491  HOH2491     0.0000
   2539 O          15.2810    5.2530   83.8586 O.3   2492  HOH2492     0.0000
   2540 O          51.3707   16.9642   39.4241 O.3   2493  HOH2493     0.0000
   2541 O           6.9362   49.6875   71.6622 O.3   2494  HOH2494     0.0000
   2542 O          27.2277   49.6875   51.3707 O.3   2495  HOH2495     0.0000
   2543 O          83.8586   16.9642    6.9362 O.3   2496  HOH2496     0.0000
   2544 O          39.4241    5.2530   59.7155 O.3   2497  HOH2497     0.0000
   2545 O          71.6622   61.3987   15.2810 O.3   2498  HOH2498     0.0000
   2546 O           6.9362   71.6622   49.6875 O.3   2499  HOH2499     0.0000
   2547 O          51.3707   39.4241   16.9642 O.3   2500  HOH2500     0.0000
   2548 O          15.2810   83.8586    5.2530 O.3   2501  HOH2501     0.0000
   2549 O          59.7155   27.2277   61.3987 O.3   2502  HOH2502     0.0000
   2550 O           5.2530   51.3707   71.6622 O.3   2503  HOH2503     0.0000
   2551 O          61.3987    6.9362   39.4241 O.3   2504  HOH2504     0.0000
   2552 O          49.6875   59.7155   83.8586 O.3   2505  HOH2505     0.0000
   2553 O          16.9642   15.2810   27.2277 O.3   2506  HOH2506     0.0000
   2554 O          27.4703   49.4449   81.9328 O.3   2507  HOH2507     0.0000
   2555 O          83.6159   17.2068   37.4983 O.3   2508  HOH2508     0.0000
   2556 O          71.9048   61.6413   73.5880 O.3   2509  HOH2509     0.0000
   2557 O          39.1814    5.0104   29.1535 O.3   2510  HOH2510     0.0000
   2558 O          49.4449   29.1535   83.6159 O.3   2511  HOH2511     0.0000
   2559 O          17.2068   73.5880   27.4703 O.3   2512  HOH2512     0.0000
   2560 O          61.6413   37.4983   39.1814 O.3   2513  HOH2513     0.0000
   2561 O           5.0104   81.9328   71.9048 O.3   2514  HOH2514     0.0000
   2562 O          29.1535   27.4703   61.6413 O.3   2515  HOH2515     0.0000
   2563 O          73.5880   83.6159    5.0104 O.3   2516  HOH2516     0.0000
   2564 O          37.4983   71.9048   49.4449 O.3   2517  HOH2517     0.0000
   2565 O          81.9328   39.1814   17.2068 O.3   2518  HOH2518     0.0000
   2566 O          17.2068   83.6159   37.4983 O.3   2519  HOH2519     0.0000
   2567 O          49.4449   27.4703   81.9328 O.3   2520  HOH2520     0.0000
   2568 O           5.0104   39.1814   29.1535 O.3   2521  HOH2521     0.0000
   2569 O          61.6413   71.9048   73.5880 O.3   2522  HOH2522     0.0000
   2570 O          37.4983   61.6413   39.1814 O.3   2523  HOH2523     0.0000
   2571 O          81.9328    5.0104   71.9048 O.3   2524  HOH2524     0.0000
   2572 O          29.1535   49.4449   83.6159 O.3   2525  HOH2525     0.0000
   2573 O          73.5880   17.2068   27.4703 O.3   2526  HOH2526     0.0000
   2574 O          39.1814   81.9328   17.2068 O.3   2527  HOH2527     0.0000
   2575 O          71.9048   37.4983   49.4449 O.3   2528  HOH2528     0.0000
   2576 O          83.6159   73.5880    5.0104 O.3   2529  HOH2529     0.0000
   2577 O          27.4703   29.1535   61.6413 O.3   2530  HOH2530     0.0000
   2578 O          16.9642   83.8586    6.9362 O.3   2531  HOH2531     0.0000
   2579 O          49.6875   27.2277   51.3707 O.3   2532  HOH2532     0.0000
   2580 O          61.3987   71.6622   15.2810 O.3   2533  HOH2533     0.0000
   2581 O           5.2530   39.4241   59.7155 O.3   2534  HOH2534     0.0000
   2582 O          83.8586   15.2810    5.2530 O.3   2535  HOH2535     0.0000
   2583 O          27.2277   59.7155   61.3987 O.3   2536  HOH2536     0.0000
   2584 O          71.6622    6.9362   49.6875 O.3   2537  HOH2537     0.0000
   2585 O          39.4241   51.3707   16.9642 O.3   2538  HOH2538     0.0000
   2586 O          15.2810   16.9642   27.2277 O.3   2539  HOH2539     0.0000
   2587 O          59.7155   49.6875   83.8586 O.3   2540  HOH2540     0.0000
   2588 O           6.9362   61.3987   39.4241 O.3   2541  HOH2541     0.0000
   2589 O          51.3707    5.2530   71.6622 O.3   2542  HOH2542     0.0000
   2590 O          71.6622    5.2530   51.3707 O.3   2543  HOH2543     0.0000
   2591 O          39.4241   61.3987    6.9362 O.3   2544  HOH2544     0.0000
   2592 O          83.8586   49.6875   59.7155 O.3   2545  HOH2545     0.0000
   2593 O          27.2277   16.9642   15.2810 O.3   2546  HOH2546     0.0000
   2594 O          51.3707   27.2277   49.6875 O.3   2547  HOH2547     0.0000
   2595 O           6.9362   83.8586   16.9642 O.3   2548  HOH2548     0.0000
   2596 O          59.7155   39.4241    5.2530 O.3   2549  HOH2549     0.0000
   2597 O          15.2810   71.6622   61.3987 O.3   2550  HOH2550     0.0000
   2598 O          49.6875    6.9362   71.6622 O.3   2551  HOH2551     0.0000
   2599 O          16.9642   51.3707   39.4241 O.3   2552  HOH2552     0.0000
   2600 O           5.2530   15.2810   83.8586 O.3   2553  HOH2553     0.0000
   2601 O          61.3987   59.7155   27.2277 O.3   2554  HOH2554     0.0000
   2602 O          71.9048    5.0104   81.9328 O.3   2555  HOH2555     0.0000
   2603 O          39.1814   61.6413   37.4983 O.3   2556  HOH2556     0.0000
   2604 O          27.4703   17.2068   73.5880 O.3   2557  HOH2557     0.0000
   2605 O          83.6159   49.4449   29.1535 O.3   2558  HOH2558     0.0000
   2606 O           5.0104   73.5880   83.6159 O.3   2559  HOH2559     0.0000
   2607 O          61.6413   29.1535   27.4703 O.3   2560  HOH2560     0.0000
   2608 O          17.2068   81.9328   39.1814 O.3   2561  HOH2561     0.0000
   2609 O          49.4449   37.4983   71.9048 O.3   2562  HOH2562     0.0000
   2610 O          73.5880   71.9048   61.6413 O.3   2563  HOH2563     0.0000
   2611 O          29.1535   39.1814    5.0104 O.3   2564  HOH2564     0.0000
   2612 O          81.9328   27.4703   49.4449 O.3   2565  HOH2565     0.0000
   2613 O          37.4983   83.6159   17.2068 O.3   2566  HOH2566     0.0000
   2614 O          17.2068   39.1814   81.9328 O.3   2567  HOH2567     0.0000
   2615 O          49.4449   71.9048   37.4983 O.3   2568  HOH2568     0.0000
   2616 O           5.0104   83.6159   73.5880 O.3   2569  HOH2569     0.0000
   2617 O          61.6413   27.4703   29.1535 O.3   2570  HOH2570     0.0000
   2618 O          37.4983   17.2068   83.6159 O.3   2571  HOH2571     0.0000
   2619 O          81.9328   49.4449   27.4703 O.3   2572  HOH2572     0.0000
   2620 O          29.1535    5.0104   39.1814 O.3   2573  HOH2573     0.0000
   2621 O          73.5880   61.6413   71.9048 O.3   2574  HOH2574     0.0000
   2622 O          39.1814   37.4983   61.6413 O.3   2575  HOH2575     0.0000
   2623 O          71.9048   81.9328    5.0104 O.3   2576  HOH2576     0.0000
   2624 O          83.6159   29.1535   49.4449 O.3   2577  HOH2577     0.0000
   2625 O          27.4703   73.5880   17.2068 O.3   2578  HOH2578     0.0000
   2626 O          16.9642   39.4241   51.3707 O.3   2579  HOH2579     0.0000
   2627 O          49.6875   71.6622    6.9362 O.3   2580  HOH2580     0.0000
   2628 O          61.3987   27.2277   59.7155 O.3   2581  HOH2581     0.0000
   2629 O           5.2530   83.8586   15.2810 O.3   2582  HOH2582     0.0000
   2630 O          83.8586   59.7155   49.6875 O.3   2583  HOH2583     0.0000
   2631 O          27.2277   15.2810   16.9642 O.3   2584  HOH2584     0.0000
   2632 O          71.6622   51.3707    5.2530 O.3   2585  HOH2585     0.0000
   2633 O          39.4241    6.9362   61.3987 O.3   2586  HOH2586     0.0000
   2634 O          15.2810   61.3987   71.6622 O.3   2587  HOH2587     0.0000
   2635 O          59.7155    5.2530   39.4241 O.3   2588  HOH2588     0.0000
   2636 O           6.9362   16.9642   83.8586 O.3   2589  HOH2589     0.0000
   2637 O          51.3707   49.6875   27.2277 O.3   2590  HOH2590     0.0000
   2638 O          71.6622   49.6875    6.9362 O.3   2591  HOH2591     0.0000
   2639 O          39.4241   16.9642   51.3707 O.3   2592  HOH2592     0.0000
   2640 O          83.8586    5.2530   15.2810 O.3   2593  HOH2593     0.0000
   2641 O          27.2277   61.3987   59.7155 O.3   2594  HOH2594     0.0000
   2642 O          51.3707   71.6622    5.2530 O.3   2595  HOH2595     0.0000
   2643 O           6.9362   39.4241   61.3987 O.3   2596  HOH2596     0.0000
   2644 O          59.7155   83.8586   49.6875 O.3   2597  HOH2597     0.0000
   2645 O          15.2810   27.2277   16.9642 O.3   2598  HOH2598     0.0000
   2646 O          49.6875   51.3707   27.2277 O.3   2599  HOH2599     0.0000
   2647 O          16.9642    6.9362   83.8586 O.3   2600  HOH2600     0.0000
   2648 O           5.2530   59.7155   39.4241 O.3   2601  HOH2601     0.0000
   2649 O          61.3987   15.2810   71.6622 O.3   2602  HOH2602     0.0000
   2650 O          71.9048   49.4449   37.4983 O.3   2603  HOH2603     0.0000
   2651 O          39.1814   17.2068   81.9328 O.3   2604  HOH2604     0.0000
   2652 O          27.4703   61.6413   29.1535 O.3   2605  HOH2605     0.0000
   2653 O          83.6159    5.0104   73.5880 O.3   2606  HOH2606     0.0000
   2654 O           5.0104   29.1535   39.1814 O.3   2607  HOH2607     0.0000
   2655 O          61.6413   73.5880   71.9048 O.3   2608  HOH2608     0.0000
   2656 O          17.2068   37.4983   83.6159 O.3   2609  HOH2609     0.0000
   2657 O          49.4449   81.9328   27.4703 O.3   2610  HOH2610     0.0000
   2658 O          73.5880   27.4703   17.2068 O.3   2611  HOH2611     0.0000
   2659 O          29.1535   83.6159   49.4449 O.3   2612  HOH2612     0.0000
   2660 O          81.9328   71.9048    5.0104 O.3   2613  HOH2613     0.0000
   2661 O          37.4983   39.1814   61.6413 O.3   2614  HOH2614     0.0000
   2662 O           9.0300   31.4401   33.7204 O.3   2615  HOH2615     0.0000
   2663 O          53.4645   35.2117   77.3658 O.3   2616  HOH2616     0.0000
   2664 O          13.1873   75.8746   32.9313 O.3   2617  HOH2617     0.0000
   2665 O          78.1549   57.6218   79.6462 O.3   2618  HOH2618     0.0000
   2666 O          33.7204    9.0300   31.4401 O.3   2619  HOH2619     0.0000
   2667 O          77.3658   53.4645   35.2117 O.3   2620  HOH2620     0.0000
   2668 O          32.9313   13.1873   75.8746 O.3   2621  HOH2621     0.0000
   2669 O          79.6462   78.1549   57.6218 O.3   2622  HOH2622     0.0000
   2670 O          31.4401   33.7204    9.0300 O.3   2623  HOH2623     0.0000
   2671 O          35.2117   77.3658   53.4645 O.3   2624  HOH2624     0.0000
   2672 O          75.8746   32.9313   13.1873 O.3   2625  HOH2625     0.0000
   2673 O          57.4289   79.8390   55.1485 O.3   2626  HOH2626     0.0000
   2674 O           9.2228   31.2472   10.7140 O.3   2627  HOH2627     0.0000
   2675 O          12.9944   75.6817   55.9377 O.3   2628  HOH2628     0.0000
   2676 O          53.6573   35.4045   11.5032 O.3   2629  HOH2629     0.0000
   2677 O          35.4045   11.5032   53.6573 O.3   2630  HOH2630     0.0000
   2678 O          75.6817   55.9377   12.9944 O.3   2631  HOH2631     0.0000
   2679 O          31.2472   10.7140    9.2228 O.3   2632  HOH2632     0.0000
   2680 O          79.8390   55.1485   57.4289 O.3   2633  HOH2633     0.0000
   2681 O          55.9377   12.9944   75.6817 O.3   2634  HOH2634     0.0000
   2682 O          11.5032   53.6573   35.4045 O.3   2635  HOH2635     0.0000
   2683 O          55.1485   57.4289   79.8390 O.3   2636  HOH2636     0.0000
   2684 O          10.7140    9.2228   31.2472 O.3   2637  HOH2637     0.0000
   2685 O          31.2472    9.2228   10.7140 O.3   2638  HOH2638     0.0000
   2686 O          79.8390   57.4289   55.1485 O.3   2639  HOH2639     0.0000
   2687 O          35.4045   53.6573   11.5032 O.3   2640  HOH2640     0.0000
   2688 O          75.6817   12.9944   55.9377 O.3   2641  HOH2641     0.0000
   2689 O          10.7140   31.2472    9.2228 O.3   2642  HOH2642     0.0000
   2690 O          55.1485   79.8390   57.4289 O.3   2643  HOH2643     0.0000
   2691 O          11.5032   35.4045   53.6573 O.3   2644  HOH2644     0.0000
   2692 O          55.9377   75.6817   12.9944 O.3   2645  HOH2645     0.0000
   2693 O           9.2228   10.7140   31.2472 O.3   2646  HOH2646     0.0000
   2694 O          57.4289   55.1485   79.8390 O.3   2647  HOH2647     0.0000
   2695 O          53.6573   11.5032   35.4045 O.3   2648  HOH2648     0.0000
   2696 O          12.9944   55.9377   75.6817 O.3   2649  HOH2649     0.0000
   2697 O          31.4401    9.0300   33.7204 O.3   2650  HOH2650     0.0000
   2698 O          79.6462   57.6218   78.1549 O.3   2651  HOH2651     0.0000
   2699 O          75.8746   13.1873   32.9313 O.3   2652  HOH2652     0.0000
   2700 O          35.2117   53.4645   77.3658 O.3   2653  HOH2653     0.0000
   2701 O          53.4645   77.3658   35.2117 O.3   2654  HOH2654     0.0000
   2702 O          13.1873   32.9313   75.8746 O.3   2655  HOH2655     0.0000
   2703 O          57.6218   78.1549   79.6462 O.3   2656  HOH2656     0.0000
   2704 O           9.0300   33.7204   31.4401 O.3   2657  HOH2657     0.0000
   2705 O          32.9313   75.8746   13.1873 O.3   2658  HOH2658     0.0000
   2706 O          77.3658   35.2117   53.4645 O.3   2659  HOH2659     0.0000
   2707 O          33.7204   31.4401    9.0300 O.3   2660  HOH2660     0.0000
   2708 O          78.1549   79.6462   57.6218 O.3   2661  HOH2661     0.0000
   2709 O          57.6218   35.2117   33.7204 O.3   2662  HOH2662     0.0000
   2710 O           9.0300   75.8746   78.1549 O.3   2663  HOH2663     0.0000
   2711 O          53.4645   79.6462   32.9313 O.3   2664  HOH2664     0.0000
   2712 O          13.1873   31.4401   77.3658 O.3   2665  HOH2665     0.0000
   2713 O          78.1549   13.1873   35.2117 O.3   2666  HOH2666     0.0000
   2714 O          33.7204   53.4645   75.8746 O.3   2667  HOH2667     0.0000
   2715 O          77.3658    9.0300   79.6462 O.3   2668  HOH2668     0.0000
   2716 O          32.9313   57.6218   31.4401 O.3   2669  HOH2669     0.0000
   2717 O          79.6462   33.7204   13.1873 O.3   2670  HOH2670     0.0000
   2718 O          31.4401   78.1549   53.4645 O.3   2671  HOH2671     0.0000
   2719 O          35.2117   32.9313    9.0300 O.3   2672  HOH2672     0.0000
   2720 O          75.8746   77.3658   57.6218 O.3   2673  HOH2673     0.0000
   2721 O          57.4289   35.4045   10.7140 O.3   2674  HOH2674     0.0000
   2722 O           9.2228   75.6817   55.1485 O.3   2675  HOH2675     0.0000
   2723 O          12.9944   31.2472   11.5032 O.3   2676  HOH2676     0.0000
   2724 O          53.6573   79.8390   55.9377 O.3   2677  HOH2677     0.0000
   2725 O          35.4045   55.9377    9.2228 O.3   2678  HOH2678     0.0000
   2726 O          75.6817   11.5032   57.4289 O.3   2679  HOH2679     0.0000
   2727 O          31.2472   55.1485   53.6573 O.3   2680  HOH2680     0.0000
   2728 O          79.8390   10.7140   12.9944 O.3   2681  HOH2681     0.0000
   2729 O          55.9377   57.4289   31.2472 O.3   2682  HOH2682     0.0000
   2730 O          11.5032    9.2228   79.8390 O.3   2683  HOH2683     0.0000
   2731 O          55.1485   12.9944   35.4045 O.3   2684  HOH2684     0.0000
   2732 O          10.7140   53.6573   75.6817 O.3   2685  HOH2685     0.0000
   2733 O          31.2472   53.6573   55.1485 O.3   2686  HOH2686     0.0000
   2734 O          79.8390   12.9944   10.7140 O.3   2687  HOH2687     0.0000
   2735 O          35.4045    9.2228   55.9377 O.3   2688  HOH2688     0.0000
   2736 O          75.6817   57.4289   11.5032 O.3   2689  HOH2689     0.0000
   2737 O          10.7140   75.6817   53.6573 O.3   2690  HOH2690     0.0000
   2738 O          55.1485   35.4045   12.9944 O.3   2691  HOH2691     0.0000
   2739 O          11.5032   79.8390    9.2228 O.3   2692  HOH2692     0.0000
   2740 O          55.9377   31.2472   57.4289 O.3   2693  HOH2693     0.0000
   2741 O           9.2228   55.1485   75.6817 O.3   2694  HOH2694     0.0000
   2742 O          57.4289   10.7140   35.4045 O.3   2695  HOH2695     0.0000
   2743 O          53.6573   55.9377   79.8390 O.3   2696  HOH2696     0.0000
   2744 O          12.9944   11.5032   31.2472 O.3   2697  HOH2697     0.0000
   2745 O          31.4401   53.4645   78.1549 O.3   2698  HOH2698     0.0000
   2746 O          79.6462   13.1873   33.7204 O.3   2699  HOH2699     0.0000
   2747 O          75.8746   57.6218   77.3658 O.3   2700  HOH2700     0.0000
   2748 O          35.2117    9.0300   32.9313 O.3   2701  HOH2701     0.0000
   2749 O          53.4645   32.9313   79.6462 O.3   2702  HOH2702     0.0000
   2750 O          13.1873   77.3658   31.4401 O.3   2703  HOH2703     0.0000
   2751 O          57.6218   33.7204   35.2117 O.3   2704  HOH2704     0.0000
   2752 O           9.0300   78.1549   75.8746 O.3   2705  HOH2705     0.0000
   2753 O          32.9313   31.4401   57.6218 O.3   2706  HOH2706     0.0000
   2754 O          77.3658   79.6462    9.0300 O.3   2707  HOH2707     0.0000
   2755 O          33.7204   75.8746   53.4645 O.3   2708  HOH2708     0.0000
   2756 O          78.1549   35.2117   13.1873 O.3   2709  HOH2709     0.0000
   2757 O          13.1873   79.6462   33.7204 O.3   2710  HOH2710     0.0000
   2758 O          53.4645   31.4401   78.1549 O.3   2711  HOH2711     0.0000
   2759 O           9.0300   35.2117   32.9313 O.3   2712  HOH2712     0.0000
   2760 O          57.6218   75.8746   77.3658 O.3   2713  HOH2713     0.0000
   2761 O          33.7204   57.6218   35.2117 O.3   2714  HOH2714     0.0000
   2762 O          78.1549    9.0300   75.8746 O.3   2715  HOH2715     0.0000
   2763 O          32.9313   53.4645   79.6462 O.3   2716  HOH2716     0.0000
   2764 O          77.3658   13.1873   31.4401 O.3   2717  HOH2717     0.0000
   2765 O          35.2117   78.1549   13.1873 O.3   2718  HOH2718     0.0000
   2766 O          75.8746   33.7204   53.4645 O.3   2719  HOH2719     0.0000
   2767 O          79.6462   77.3658    9.0300 O.3   2720  HOH2720     0.0000
   2768 O          31.4401   32.9313   57.6218 O.3   2721  HOH2721     0.0000
   2769 O          12.9944   79.8390   10.7140 O.3   2722  HOH2722     0.0000
   2770 O          53.6573   31.2472   55.1485 O.3   2723  HOH2723     0.0000
   2771 O          57.4289   75.6817   11.5032 O.3   2724  HOH2724     0.0000
   2772 O           9.2228   35.4045   55.9377 O.3   2725  HOH2725     0.0000
   2773 O          79.8390   11.5032    9.2228 O.3   2726  HOH2726     0.0000
   2774 O          31.2472   55.9377   57.4289 O.3   2727  HOH2727     0.0000
   2775 O          75.6817   10.7140   53.6573 O.3   2728  HOH2728     0.0000
   2776 O          35.4045   55.1485   12.9944 O.3   2729  HOH2729     0.0000
   2777 O          11.5032   12.9944   31.2472 O.3   2730  HOH2730     0.0000
   2778 O          55.9377   53.6573   79.8390 O.3   2731  HOH2731     0.0000
   2779 O          10.7140   57.4289   35.4045 O.3   2732  HOH2732     0.0000
   2780 O          55.1485    9.2228   75.6817 O.3   2733  HOH2733     0.0000
   2781 O          75.6817    9.2228   55.1485 O.3   2734  HOH2734     0.0000
   2782 O          35.4045   57.4289   10.7140 O.3   2735  HOH2735     0.0000
   2783 O          79.8390   53.6573   55.9377 O.3   2736  HOH2736     0.0000
   2784 O          31.2472   12.9944   11.5032 O.3   2737  HOH2737     0.0000
   2785 O          55.1485   31.2472   53.6573 O.3   2738  HOH2738     0.0000
   2786 O          10.7140   79.8390   12.9944 O.3   2739  HOH2739     0.0000
   2787 O          55.9377   35.4045    9.2228 O.3   2740  HOH2740     0.0000
   2788 O          11.5032   75.6817   57.4289 O.3   2741  HOH2741     0.0000
   2789 O          53.6573   10.7140   75.6817 O.3   2742  HOH2742     0.0000
   2790 O          12.9944   55.1485   35.4045 O.3   2743  HOH2743     0.0000
   2791 O           9.2228   11.5032   79.8390 O.3   2744  HOH2744     0.0000
   2792 O          57.4289   55.9377   31.2472 O.3   2745  HOH2745     0.0000
   2793 O          75.8746    9.0300   78.1549 O.3   2746  HOH2746     0.0000
   2794 O          35.2117   57.6218   33.7204 O.3   2747  HOH2747     0.0000
   2795 O          31.4401   13.1873   77.3658 O.3   2748  HOH2748     0.0000
   2796 O          79.6462   53.4645   32.9313 O.3   2749  HOH2749     0.0000
   2797 O           9.0300   77.3658   79.6462 O.3   2750  HOH2750     0.0000
   2798 O          57.6218   32.9313   31.4401 O.3   2751  HOH2751     0.0000
   2799 O          13.1873   78.1549   35.2117 O.3   2752  HOH2752     0.0000
   2800 O          53.4645   33.7204   75.8746 O.3   2753  HOH2753     0.0000
   2801 O          77.3658   75.8746   57.6218 O.3   2754  HOH2754     0.0000
   2802 O          32.9313   35.2117    9.0300 O.3   2755  HOH2755     0.0000
   2803 O          78.1549   31.4401   53.4645 O.3   2756  HOH2756     0.0000
   2804 O          33.7204   79.6462   13.1873 O.3   2757  HOH2757     0.0000
   2805 O          13.1873   35.2117   78.1549 O.3   2758  HOH2758     0.0000
   2806 O          53.4645   75.8746   33.7204 O.3   2759  HOH2759     0.0000
   2807 O           9.0300   79.6462   77.3658 O.3   2760  HOH2760     0.0000
   2808 O          57.6218   31.4401   32.9313 O.3   2761  HOH2761     0.0000
   2809 O          33.7204   13.1873   79.6462 O.3   2762  HOH2762     0.0000
   2810 O          78.1549   53.4645   31.4401 O.3   2763  HOH2763     0.0000
   2811 O          32.9313    9.0300   35.2117 O.3   2764  HOH2764     0.0000
   2812 O          77.3658   57.6218   75.8746 O.3   2765  HOH2765     0.0000
   2813 O          35.2117   33.7204   57.6218 O.3   2766  HOH2766     0.0000
   2814 O          75.8746   78.1549    9.0300 O.3   2767  HOH2767     0.0000
   2815 O          79.6462   32.9313   53.4645 O.3   2768  HOH2768     0.0000
   2816 O          31.4401   77.3658   13.1873 O.3   2769  HOH2769     0.0000
   2817 O          12.9944   35.4045   55.1485 O.3   2770  HOH2770     0.0000
   2818 O          53.6573   75.6817   10.7140 O.3   2771  HOH2771     0.0000
   2819 O          57.4289   31.2472   55.9377 O.3   2772  HOH2772     0.0000
   2820 O           9.2228   79.8390   11.5032 O.3   2773  HOH2773     0.0000
   2821 O          79.8390   55.9377   53.6573 O.3   2774  HOH2774     0.0000
   2822 O          31.2472   11.5032   12.9944 O.3   2775  HOH2775     0.0000
   2823 O          75.6817   55.1485    9.2228 O.3   2776  HOH2776     0.0000
   2824 O          35.4045   10.7140   57.4289 O.3   2777  HOH2777     0.0000
   2825 O          11.5032   57.4289   75.6817 O.3   2778  HOH2778     0.0000
   2826 O          55.9377    9.2228   35.4045 O.3   2779  HOH2779     0.0000
   2827 O          10.7140   12.9944   79.8390 O.3   2780  HOH2780     0.0000
   2828 O          55.1485   53.6573   31.2472 O.3   2781  HOH2781     0.0000
   2829 O          75.6817   53.6573   10.7140 O.3   2782  HOH2782     0.0000
   2830 O          35.4045   12.9944   55.1485 O.3   2783  HOH2783     0.0000
   2831 O          79.8390    9.2228   11.5032 O.3   2784  HOH2784     0.0000
   2832 O          31.2472   57.4289   55.9377 O.3   2785  HOH2785     0.0000
   2833 O          55.1485   75.6817    9.2228 O.3   2786  HOH2786     0.0000
   2834 O          10.7140   35.4045   57.4289 O.3   2787  HOH2787     0.0000
   2835 O          55.9377   79.8390   53.6573 O.3   2788  HOH2788     0.0000
   2836 O          11.5032   31.2472   12.9944 O.3   2789  HOH2789     0.0000
   2837 O          53.6573   55.1485   31.2472 O.3   2790  HOH2790     0.0000
   2838 O          12.9944   10.7140   79.8390 O.3   2791  HOH2791     0.0000
   2839 O           9.2228   55.9377   35.4045 O.3   2792  HOH2792     0.0000
   2840 O          57.4289   11.5032   75.6817 O.3   2793  HOH2793     0.0000
   2841 O          75.8746   53.4645   33.7204 O.3   2794  HOH2794     0.0000
   2842 O          35.2117   13.1873   78.1549 O.3   2795  HOH2795     0.0000
   2843 O          31.4401   57.6218   32.9313 O.3   2796  HOH2796     0.0000
   2844 O          79.6462    9.0300   77.3658 O.3   2797  HOH2797     0.0000
   2845 O           9.0300   32.9313   35.2117 O.3   2798  HOH2798     0.0000
   2846 O          57.6218   77.3658   75.8746 O.3   2799  HOH2799     0.0000
   2847 O          13.1873   33.7204   79.6462 O.3   2800  HOH2800     0.0000
   2848 O          53.4645   78.1549   31.4401 O.3   2801  HOH2801     0.0000
   2849 O          77.3658   31.4401   13.1873 O.3   2802  HOH2802     0.0000
   2850 O          32.9313   79.6462   53.4645 O.3   2803  HOH2803     0.0000
   2851 O          78.1549   75.8746    9.0300 O.3   2804  HOH2804     0.0000
   2852 O          33.7204   35.2117   57.6218 O.3   2805  HOH2805     0.0000
   2853 O          50.1905   24.3288   84.7624 O.3   2806  HOH2806     0.0000
   2854 O           5.7560   42.3230   26.3239 O.3   2807  HOH2807     0.0000
   2855 O          60.8957   68.7633   70.7584 O.3   2808  HOH2808     0.0000
   2856 O          40.3279   16.4612   86.7575 O.3   2809  HOH2809     0.0000
   2857 O          84.7624   50.1905   24.3288 O.3   2810  HOH2810     0.0000
   2858 O          26.3239    5.7560   42.3230 O.3   2811  HOH2811     0.0000
   2859 O          70.7584   60.8957   68.7633 O.3   2812  HOH2812     0.0000
   2860 O          86.7575   40.3279   16.4612 O.3   2813  HOH2813     0.0000
   2861 O          24.3288   84.7624   50.1905 O.3   2814  HOH2814     0.0000
   2862 O          42.3230   26.3239    5.7560 O.3   2815  HOH2815     0.0000
   2863 O          68.7633   70.7584   60.8957 O.3   2816  HOH2816     0.0000
   2864 O          64.5402   38.6785    4.1066 O.3   2817  HOH2817     0.0000
   2865 O           2.1115   72.4078   48.5411 O.3   2818  HOH2818     0.0000
   2866 O          20.1057   27.9733   18.1106 O.3   2819  HOH2819     0.0000
   2867 O          46.5460   83.1129   62.5451 O.3   2820  HOH2820     0.0000
   2868 O          83.1129   62.5451   46.5460 O.3   2821  HOH2821     0.0000
   2869 O          27.9733   18.1106   20.1057 O.3   2822  HOH2822     0.0000
   2870 O          72.4078   48.5411    2.1115 O.3   2823  HOH2823     0.0000
   2871 O          38.6785    4.1066   64.5402 O.3   2824  HOH2824     0.0000
   2872 O          18.1106   20.1057   27.9733 O.3   2825  HOH2825     0.0000
   2873 O          62.5451   46.5460   83.1129 O.3   2826  HOH2826     0.0000
   2874 O           4.1066   64.5402   38.6785 O.3   2827  HOH2827     0.0000
   2875 O          48.5411    2.1115   72.4078 O.3   2828  HOH2828     0.0000
   2876 O          72.4078    2.1115   48.5411 O.3   2829  HOH2829     0.0000
   2877 O          38.6785   64.5402    4.1066 O.3   2830  HOH2830     0.0000
   2878 O          83.1129   46.5460   62.5451 O.3   2831  HOH2831     0.0000
   2879 O          27.9733   20.1057   18.1106 O.3   2832  HOH2832     0.0000
   2880 O          48.5411   72.4078    2.1115 O.3   2833  HOH2833     0.0000
   2881 O           4.1066   38.6785   64.5402 O.3   2834  HOH2834     0.0000
   2882 O          62.5451   83.1129   46.5460 O.3   2835  HOH2835     0.0000
   2883 O          18.1106   27.9733   20.1057 O.3   2836  HOH2836     0.0000
   2884 O           2.1115   48.5411   72.4078 O.3   2837  HOH2837     0.0000
   2885 O          64.5402    4.1066   38.6785 O.3   2838  HOH2838     0.0000
   2886 O          46.5460   62.5451   83.1129 O.3   2839  HOH2839     0.0000
   2887 O          20.1057   18.1106   27.9733 O.3   2840  HOH2840     0.0000
   2888 O          24.3288   50.1905   84.7624 O.3   2841  HOH2841     0.0000
   2889 O          86.7575   16.4612   40.3279 O.3   2842  HOH2842     0.0000
   2890 O          68.7633   60.8957   70.7584 O.3   2843  HOH2843     0.0000
   2891 O          42.3230    5.7560   26.3239 O.3   2844  HOH2844     0.0000
   2892 O           5.7560   26.3239   42.3230 O.3   2845  HOH2845     0.0000
   2893 O          60.8957   70.7584   68.7633 O.3   2846  HOH2846     0.0000
   2894 O          16.4612   40.3279   86.7575 O.3   2847  HOH2847     0.0000
   2895 O          50.1905   84.7624   24.3288 O.3   2848  HOH2848     0.0000
   2896 O          70.7584   68.7633   60.8957 O.3   2849  HOH2849     0.0000
   2897 O          26.3239   42.3230    5.7560 O.3   2850  HOH2850     0.0000
   2898 O          84.7624   24.3288   50.1905 O.3   2851  HOH2851     0.0000
   2899 O          40.3279   86.7575   16.4612 O.3   2852  HOH2852     0.0000
   2900 O          16.4612   42.3230   84.7624 O.3   2853  HOH2853     0.0000
   2901 O          50.1905   68.7633   40.3279 O.3   2854  HOH2854     0.0000
   2902 O           5.7560   86.7575   70.7584 O.3   2855  HOH2855     0.0000
   2903 O          60.8957   24.3288   26.3239 O.3   2856  HOH2856     0.0000
   2904 O          40.3279   60.8957   42.3230 O.3   2857  HOH2857     0.0000
   2905 O          84.7624    5.7560   68.7633 O.3   2858  HOH2858     0.0000
   2906 O          26.3239   50.1905   86.7575 O.3   2859  HOH2859     0.0000
   2907 O          70.7584   16.4612   24.3288 O.3   2860  HOH2860     0.0000
   2908 O          86.7575   84.7624   60.8957 O.3   2861  HOH2861     0.0000
   2909 O          24.3288   40.3279    5.7560 O.3   2862  HOH2862     0.0000
   2910 O          42.3230   70.7584   50.1905 O.3   2863  HOH2863     0.0000
   2911 O          68.7633   26.3239   16.4612 O.3   2864  HOH2864     0.0000
   2912 O          64.5402   83.1129   48.5411 O.3   2865  HOH2865     0.0000
   2913 O           2.1115   27.9733    4.1066 O.3   2866  HOH2866     0.0000
   2914 O          20.1057   72.4078   62.5451 O.3   2867  HOH2867     0.0000
   2915 O          46.5460   38.6785   18.1106 O.3   2868  HOH2868     0.0000
   2916 O          83.1129   18.1106    2.1115 O.3   2869  HOH2869     0.0000
   2917 O          27.9733   62.5451   64.5402 O.3   2870  HOH2870     0.0000
   2918 O          72.4078    4.1066   46.5460 O.3   2871  HOH2871     0.0000
   2919 O          38.6785   48.5411   20.1057 O.3   2872  HOH2872     0.0000
   2920 O          18.1106   64.5402   72.4078 O.3   2873  HOH2873     0.0000
   2921 O          62.5451    2.1115   38.6785 O.3   2874  HOH2874     0.0000
   2922 O           4.1066   20.1057   83.1129 O.3   2875  HOH2875     0.0000
   2923 O          48.5411   46.5460   27.9733 O.3   2876  HOH2876     0.0000
   2924 O          72.4078   46.5460    4.1066 O.3   2877  HOH2877     0.0000
   2925 O          38.6785   20.1057   48.5411 O.3   2878  HOH2878     0.0000
   2926 O          83.1129    2.1115   18.1106 O.3   2879  HOH2879     0.0000
   2927 O          27.9733   64.5402   62.5451 O.3   2880  HOH2880     0.0000
   2928 O          48.5411   27.9733   46.5460 O.3   2881  HOH2881     0.0000
   2929 O           4.1066   83.1129   20.1057 O.3   2882  HOH2882     0.0000
   2930 O          62.5451   38.6785    2.1115 O.3   2883  HOH2883     0.0000
   2931 O          18.1106   72.4078   64.5402 O.3   2884  HOH2884     0.0000
   2932 O           2.1115    4.1066   27.9733 O.3   2885  HOH2885     0.0000
   2933 O          64.5402   48.5411   83.1129 O.3   2886  HOH2886     0.0000
   2934 O          46.5460   18.1106   38.6785 O.3   2887  HOH2887     0.0000
   2935 O          20.1057   62.5451   72.4078 O.3   2888  HOH2888     0.0000
   2936 O          24.3288    5.7560   40.3279 O.3   2889  HOH2889     0.0000
   2937 O          86.7575   60.8957   84.7624 O.3   2890  HOH2890     0.0000
   2938 O          68.7633   16.4612   26.3239 O.3   2891  HOH2891     0.0000
   2939 O          42.3230   50.1905   70.7584 O.3   2892  HOH2892     0.0000
   2940 O           5.7560   70.7584   86.7575 O.3   2893  HOH2893     0.0000
   2941 O          60.8957   26.3239   24.3288 O.3   2894  HOH2894     0.0000
   2942 O          16.4612   84.7624   42.3230 O.3   2895  HOH2895     0.0000
   2943 O          50.1905   40.3279   68.7633 O.3   2896  HOH2896     0.0000
   2944 O          70.7584   24.3288   16.4612 O.3   2897  HOH2897     0.0000
   2945 O          26.3239   86.7575   50.1905 O.3   2898  HOH2898     0.0000
   2946 O          84.7624   68.7633    5.7560 O.3   2899  HOH2899     0.0000
   2947 O          40.3279   42.3230   60.8957 O.3   2900  HOH2900     0.0000
   2948 O          60.8957   86.7575   84.7624 O.3   2901  HOH2901     0.0000
   2949 O           5.7560   24.3288   40.3279 O.3   2902  HOH2902     0.0000
   2950 O          50.1905   42.3230   70.7584 O.3   2903  HOH2903     0.0000
   2951 O          16.4612   68.7633   26.3239 O.3   2904  HOH2904     0.0000
   2952 O          84.7624   16.4612   42.3230 O.3   2905  HOH2905     0.0000
   2953 O          40.3279   50.1905   68.7633 O.3   2906  HOH2906     0.0000
   2954 O          70.7584    5.7560   86.7575 O.3   2907  HOH2907     0.0000
   2955 O          26.3239   60.8957   24.3288 O.3   2908  HOH2908     0.0000
   2956 O          42.3230   40.3279   60.8957 O.3   2909  HOH2909     0.0000
   2957 O          68.7633   84.7624    5.7560 O.3   2910  HOH2910     0.0000
   2958 O          86.7575   26.3239   50.1905 O.3   2911  HOH2911     0.0000
   2959 O          24.3288   70.7584   16.4612 O.3   2912  HOH2912     0.0000
   2960 O          20.1057   38.6785   48.5411 O.3   2913  HOH2913     0.0000
   2961 O          46.5460   72.4078    4.1066 O.3   2914  HOH2914     0.0000
   2962 O          64.5402   27.9733   62.5451 O.3   2915  HOH2915     0.0000
   2963 O           2.1115   83.1129   18.1106 O.3   2916  HOH2916     0.0000
   2964 O          38.6785   62.5451    2.1115 O.3   2917  HOH2917     0.0000
   2965 O          72.4078   18.1106   64.5402 O.3   2918  HOH2918     0.0000
   2966 O          27.9733   48.5411   46.5460 O.3   2919  HOH2919     0.0000
   2967 O          83.1129    4.1066   20.1057 O.3   2920  HOH2920     0.0000
   2968 O          62.5451   20.1057   72.4078 O.3   2921  HOH2921     0.0000
   2969 O          18.1106   46.5460   38.6785 O.3   2922  HOH2922     0.0000
   2970 O          48.5411   64.5402   83.1129 O.3   2923  HOH2923     0.0000
   2971 O           4.1066    2.1115   27.9733 O.3   2924  HOH2924     0.0000
   2972 O          27.9733    2.1115    4.1066 O.3   2925  HOH2925     0.0000
   2973 O          83.1129   64.5402   48.5411 O.3   2926  HOH2926     0.0000
   2974 O          38.6785   46.5460   18.1106 O.3   2927  HOH2927     0.0000
   2975 O          72.4078   20.1057   62.5451 O.3   2928  HOH2928     0.0000
   2976 O           4.1066   72.4078   46.5460 O.3   2929  HOH2929     0.0000
   2977 O          48.5411   38.6785   20.1057 O.3   2930  HOH2930     0.0000
   2978 O          18.1106   83.1129    2.1115 O.3   2931  HOH2931     0.0000
   2979 O          62.5451   27.9733   64.5402 O.3   2932  HOH2932     0.0000
   2980 O          46.5460   48.5411   27.9733 O.3   2933  HOH2933     0.0000
   2981 O          20.1057    4.1066   83.1129 O.3   2934  HOH2934     0.0000
   2982 O           2.1115   62.5451   38.6785 O.3   2935  HOH2935     0.0000
   2983 O          64.5402   18.1106   72.4078 O.3   2936  HOH2936     0.0000
   2984 O          68.7633   50.1905   40.3279 O.3   2937  HOH2937     0.0000
   2985 O          42.3230   16.4612   84.7624 O.3   2938  HOH2938     0.0000
   2986 O          24.3288   60.8957   26.3239 O.3   2939  HOH2939     0.0000
   2987 O          86.7575    5.7560   70.7584 O.3   2940  HOH2940     0.0000
   2988 O          50.1905   26.3239   86.7575 O.3   2941  HOH2941     0.0000
   2989 O          16.4612   70.7584   24.3288 O.3   2942  HOH2942     0.0000
   2990 O          60.8957   40.3279   42.3230 O.3   2943  HOH2943     0.0000
   2991 O           5.7560   84.7624   68.7633 O.3   2944  HOH2944     0.0000
   2992 O          26.3239   68.7633   16.4612 O.3   2945  HOH2945     0.0000
   2993 O          70.7584   42.3230   50.1905 O.3   2946  HOH2946     0.0000
   2994 O          40.3279   24.3288    5.7560 O.3   2947  HOH2947     0.0000
   2995 O          84.7624   86.7575   60.8957 O.3   2948  HOH2948     0.0000
   2996 O          60.8957   42.3230   40.3279 O.3   2949  HOH2949     0.0000
   2997 O           5.7560   68.7633   84.7624 O.3   2950  HOH2950     0.0000
   2998 O          50.1905   86.7575   26.3239 O.3   2951  HOH2951     0.0000
   2999 O          16.4612   24.3288   70.7584 O.3   2952  HOH2952     0.0000
   3000 O          84.7624   60.8957   86.7575 O.3   2953  HOH2953     0.0000
   3001 O          40.3279    5.7560   24.3288 O.3   2954  HOH2954     0.0000
   3002 O          70.7584   50.1905   42.3230 O.3   2955  HOH2955     0.0000
   3003 O          26.3239   16.4612   68.7633 O.3   2956  HOH2956     0.0000
   3004 O          42.3230   84.7624   16.4612 O.3   2957  HOH2957     0.0000
   3005 O          68.7633   40.3279   50.1905 O.3   2958  HOH2958     0.0000
   3006 O          86.7575   70.7584    5.7560 O.3   2959  HOH2959     0.0000
   3007 O          24.3288   26.3239   60.8957 O.3   2960  HOH2960     0.0000
   3008 O          20.1057   83.1129    4.1066 O.3   2961  HOH2961     0.0000
   3009 O          46.5460   27.9733   48.5411 O.3   2962  HOH2962     0.0000
   3010 O          64.5402   72.4078   18.1106 O.3   2963  HOH2963     0.0000
   3011 O           2.1115   38.6785   62.5451 O.3   2964  HOH2964     0.0000
   3012 O          38.6785   18.1106   46.5460 O.3   2965  HOH2965     0.0000
   3013 O          72.4078   62.5451   20.1057 O.3   2966  HOH2966     0.0000
   3014 O          27.9733    4.1066    2.1115 O.3   2967  HOH2967     0.0000
   3015 O          83.1129   48.5411   64.5402 O.3   2968  HOH2968     0.0000
   3016 O          62.5451   64.5402   27.9733 O.3   2969  HOH2969     0.0000
   3017 O          18.1106    2.1115   83.1129 O.3   2970  HOH2970     0.0000
   3018 O          48.5411   20.1057   38.6785 O.3   2971  HOH2971     0.0000
   3019 O           4.1066   46.5460   72.4078 O.3   2972  HOH2972     0.0000
   3020 O          27.9733   46.5460   48.5411 O.3   2973  HOH2973     0.0000
   3021 O          83.1129   20.1057    4.1066 O.3   2974  HOH2974     0.0000
   3022 O          38.6785    2.1115   62.5451 O.3   2975  HOH2975     0.0000
   3023 O          72.4078   64.5402   18.1106 O.3   2976  HOH2976     0.0000
   3024 O           4.1066   27.9733    2.1115 O.3   2977  HOH2977     0.0000
   3025 O          48.5411   83.1129   64.5402 O.3   2978  HOH2978     0.0000
   3026 O          18.1106   38.6785   46.5460 O.3   2979  HOH2979     0.0000
   3027 O          62.5451   72.4078   20.1057 O.3   2980  HOH2980     0.0000
   3028 O          46.5460    4.1066   72.4078 O.3   2981  HOH2981     0.0000
   3029 O          20.1057   48.5411   38.6785 O.3   2982  HOH2982     0.0000
   3030 O           2.1115   18.1106   83.1129 O.3   2983  HOH2983     0.0000
   3031 O          64.5402   62.5451   27.9733 O.3   2984  HOH2984     0.0000
   3032 O          68.7633    5.7560   84.7624 O.3   2985  HOH2985     0.0000
   3033 O          42.3230   60.8957   40.3279 O.3   2986  HOH2986     0.0000
   3034 O          24.3288   16.4612   70.7584 O.3   2987  HOH2987     0.0000
   3035 O          86.7575   50.1905   26.3239 O.3   2988  HOH2988     0.0000
   3036 O          50.1905   70.7584   42.3230 O.3   2989  HOH2989     0.0000
   3037 O          16.4612   26.3239   68.7633 O.3   2990  HOH2990     0.0000
   3038 O          60.8957   84.7624   86.7575 O.3   2991  HOH2991     0.0000
   3039 O           5.7560   40.3279   24.3288 O.3   2992  HOH2992     0.0000
   3040 O          26.3239   24.3288   60.8957 O.3   2993  HOH2993     0.0000
   3041 O          70.7584   86.7575    5.7560 O.3   2994  HOH2994     0.0000
   3042 O          40.3279   68.7633   50.1905 O.3   2995  HOH2995     0.0000
   3043 O          84.7624   42.3230   16.4612 O.3   2996  HOH2996     0.0000
   3044 O          49.8315   24.9615   82.6970 O.3   2997  HOH2997     0.0000
   3045 O           5.3970   41.6902   28.3892 O.3   2998  HOH2998     0.0000
   3046 O          61.2547   69.3960   72.8237 O.3   2999  HOH2999     0.0000
   3047 O          38.2625   16.8202   86.1247 O.3   3000  HOH3000     0.0000
   3048 O          82.6970   49.8315   24.9615 O.3   3001  HOH3001     0.0000
   3049 O          28.3892    5.3970   41.6902 O.3   3002  HOH3002     0.0000
   3050 O          72.8237   61.2547   69.3960 O.3   3003  HOH3003     0.0000
   3051 O          86.1247   38.2625   16.8202 O.3   3004  HOH3004     0.0000
   3052 O          24.9615   82.6970   49.8315 O.3   3005  HOH3005     0.0000
   3053 O          41.6902   28.3892    5.3970 O.3   3006  HOH3006     0.0000
   3054 O          69.3960   72.8237   61.2547 O.3   3007  HOH3007     0.0000
   3055 O          63.9075   39.0375    6.1720 O.3   3008  HOH3008     0.0000
   3056 O           2.7443   72.0488   50.6064 O.3   3009  HOH3009     0.0000
   3057 O          19.4730   27.6143   16.0453 O.3   3010  HOH3010     0.0000
   3058 O          47.1788   83.4720   60.4798 O.3   3011  HOH3011     0.0000
   3059 O          83.4720   60.4798   47.1788 O.3   3012  HOH3012     0.0000
   3060 O          27.6143   16.0453   19.4730 O.3   3013  HOH3013     0.0000
   3061 O          72.0488   50.6064    2.7443 O.3   3014  HOH3014     0.0000
   3062 O          39.0375    6.1720   63.9075 O.3   3015  HOH3015     0.0000
   3063 O          16.0453   19.4730   27.6143 O.3   3016  HOH3016     0.0000
   3064 O          60.4798   47.1788   83.4720 O.3   3017  HOH3017     0.0000
   3065 O           6.1720   63.9075   39.0375 O.3   3018  HOH3018     0.0000
   3066 O          50.6064    2.7443   72.0488 O.3   3019  HOH3019     0.0000
   3067 O          72.0488    2.7443   50.6064 O.3   3020  HOH3020     0.0000
   3068 O          39.0375   63.9075    6.1720 O.3   3021  HOH3021     0.0000
   3069 O          83.4720   47.1788   60.4798 O.3   3022  HOH3022     0.0000
   3070 O          27.6143   19.4730   16.0453 O.3   3023  HOH3023     0.0000
   3071 O          50.6064   72.0488    2.7443 O.3   3024  HOH3024     0.0000
   3072 O           6.1720   39.0375   63.9075 O.3   3025  HOH3025     0.0000
   3073 O          60.4798   83.4720   47.1788 O.3   3026  HOH3026     0.0000
   3074 O          16.0453   27.6143   19.4730 O.3   3027  HOH3027     0.0000
   3075 O           2.7443   50.6064   72.0488 O.3   3028  HOH3028     0.0000
   3076 O          63.9075    6.1720   39.0375 O.3   3029  HOH3029     0.0000
   3077 O          47.1788   60.4798   83.4720 O.3   3030  HOH3030     0.0000
   3078 O          19.4730   16.0453   27.6143 O.3   3031  HOH3031     0.0000
   3079 O          24.9615   49.8315   82.6970 O.3   3032  HOH3032     0.0000
   3080 O          86.1247   16.8202   38.2625 O.3   3033  HOH3033     0.0000
   3081 O          69.3960   61.2547   72.8237 O.3   3034  HOH3034     0.0000
   3082 O          41.6902    5.3970   28.3892 O.3   3035  HOH3035     0.0000
   3083 O           5.3970   28.3892   41.6902 O.3   3036  HOH3036     0.0000
   3084 O          61.2547   72.8237   69.3960 O.3   3037  HOH3037     0.0000
   3085 O          16.8202   38.2625   86.1247 O.3   3038  HOH3038     0.0000
   3086 O          49.8315   82.6970   24.9615 O.3   3039  HOH3039     0.0000
   3087 O          72.8237   69.3960   61.2547 O.3   3040  HOH3040     0.0000
   3088 O          28.3892   41.6902    5.3970 O.3   3041  HOH3041     0.0000
   3089 O          82.6970   24.9615   49.8315 O.3   3042  HOH3042     0.0000
   3090 O          38.2625   86.1247   16.8202 O.3   3043  HOH3043     0.0000
   3091 O          16.8202   41.6902   82.6970 O.3   3044  HOH3044     0.0000
   3092 O          49.8315   69.3960   38.2625 O.3   3045  HOH3045     0.0000
   3093 O           5.3970   86.1247   72.8237 O.3   3046  HOH3046     0.0000
   3094 O          61.2547   24.9615   28.3892 O.3   3047  HOH3047     0.0000
   3095 O          38.2625   61.2547   41.6902 O.3   3048  HOH3048     0.0000
   3096 O          82.6970    5.3970   69.3960 O.3   3049  HOH3049     0.0000
   3097 O          28.3892   49.8315   86.1247 O.3   3050  HOH3050     0.0000
   3098 O          72.8237   16.8202   24.9615 O.3   3051  HOH3051     0.0000
   3099 O          86.1247   82.6970   61.2547 O.3   3052  HOH3052     0.0000
   3100 O          24.9615   38.2625    5.3970 O.3   3053  HOH3053     0.0000
   3101 O          41.6902   72.8237   49.8315 O.3   3054  HOH3054     0.0000
   3102 O          69.3960   28.3892   16.8202 O.3   3055  HOH3055     0.0000
   3103 O          63.9075   83.4720   50.6064 O.3   3056  HOH3056     0.0000
   3104 O           2.7443   27.6143    6.1720 O.3   3057  HOH3057     0.0000
   3105 O          19.4730   72.0488   60.4798 O.3   3058  HOH3058     0.0000
   3106 O          47.1788   39.0375   16.0453 O.3   3059  HOH3059     0.0000
   3107 O          83.4720   16.0453    2.7443 O.3   3060  HOH3060     0.0000
   3108 O          27.6143   60.4798   63.9075 O.3   3061  HOH3061     0.0000
   3109 O          72.0488    6.1720   47.1788 O.3   3062  HOH3062     0.0000
   3110 O          39.0375   50.6064   19.4730 O.3   3063  HOH3063     0.0000
   3111 O          16.0453   63.9075   72.0488 O.3   3064  HOH3064     0.0000
   3112 O          60.4798    2.7443   39.0375 O.3   3065  HOH3065     0.0000
   3113 O           6.1720   19.4730   83.4720 O.3   3066  HOH3066     0.0000
   3114 O          50.6064   47.1788   27.6143 O.3   3067  HOH3067     0.0000
   3115 O          72.0488   47.1788    6.1720 O.3   3068  HOH3068     0.0000
   3116 O          39.0375   19.4730   50.6064 O.3   3069  HOH3069     0.0000
   3117 O          83.4720    2.7443   16.0453 O.3   3070  HOH3070     0.0000
   3118 O          27.6143   63.9075   60.4798 O.3   3071  HOH3071     0.0000
   3119 O          50.6064   27.6143   47.1788 O.3   3072  HOH3072     0.0000
   3120 O           6.1720   83.4720   19.4730 O.3   3073  HOH3073     0.0000
   3121 O          60.4798   39.0375    2.7443 O.3   3074  HOH3074     0.0000
   3122 O          16.0453   72.0488   63.9075 O.3   3075  HOH3075     0.0000
   3123 O           2.7443    6.1720   27.6143 O.3   3076  HOH3076     0.0000
   3124 O          63.9075   50.6064   83.4720 O.3   3077  HOH3077     0.0000
   3125 O          47.1788   16.0453   39.0375 O.3   3078  HOH3078     0.0000
   3126 O          19.4730   60.4798   72.0488 O.3   3079  HOH3079     0.0000
   3127 O          24.9615    5.3970   38.2625 O.3   3080  HOH3080     0.0000
   3128 O          86.1247   61.2547   82.6970 O.3   3081  HOH3081     0.0000
   3129 O          69.3960   16.8202   28.3892 O.3   3082  HOH3082     0.0000
   3130 O          41.6902   49.8315   72.8237 O.3   3083  HOH3083     0.0000
   3131 O           5.3970   72.8237   86.1247 O.3   3084  HOH3084     0.0000
   3132 O          61.2547   28.3892   24.9615 O.3   3085  HOH3085     0.0000
   3133 O          16.8202   82.6970   41.6902 O.3   3086  HOH3086     0.0000
   3134 O          49.8315   38.2625   69.3960 O.3   3087  HOH3087     0.0000
   3135 O          72.8237   24.9615   16.8202 O.3   3088  HOH3088     0.0000
   3136 O          28.3892   86.1247   49.8315 O.3   3089  HOH3089     0.0000
   3137 O          82.6970   69.3960    5.3970 O.3   3090  HOH3090     0.0000
   3138 O          38.2625   41.6902   61.2547 O.3   3091  HOH3091     0.0000
   3139 O          61.2547   86.1247   82.6970 O.3   3092  HOH3092     0.0000
   3140 O           5.3970   24.9615   38.2625 O.3   3093  HOH3093     0.0000
   3141 O          49.8315   41.6902   72.8237 O.3   3094  HOH3094     0.0000
   3142 O          16.8202   69.3960   28.3892 O.3   3095  HOH3095     0.0000
   3143 O          82.6970   16.8202   41.6902 O.3   3096  HOH3096     0.0000
   3144 O          38.2625   49.8315   69.3960 O.3   3097  HOH3097     0.0000
   3145 O          72.8237    5.3970   86.1247 O.3   3098  HOH3098     0.0000
   3146 O          28.3892   61.2547   24.9615 O.3   3099  HOH3099     0.0000
   3147 O          41.6902   38.2625   61.2547 O.3   3100  HOH3100     0.0000
   3148 O          69.3960   82.6970    5.3970 O.3   3101  HOH3101     0.0000
   3149 O          86.1247   28.3892   49.8315 O.3   3102  HOH3102     0.0000
   3150 O          24.9615   72.8237   16.8202 O.3   3103  HOH3103     0.0000
   3151 O          19.4730   39.0375   50.6064 O.3   3104  HOH3104     0.0000
   3152 O          47.1788   72.0488    6.1720 O.3   3105  HOH3105     0.0000
   3153 O          63.9075   27.6143   60.4798 O.3   3106  HOH3106     0.0000
   3154 O           2.7443   83.4720   16.0453 O.3   3107  HOH3107     0.0000
   3155 O          39.0375   60.4798    2.7443 O.3   3108  HOH3108     0.0000
   3156 O          72.0488   16.0453   63.9075 O.3   3109  HOH3109     0.0000
   3157 O          27.6143   50.6064   47.1788 O.3   3110  HOH3110     0.0000
   3158 O          83.4720    6.1720   19.4730 O.3   3111  HOH3111     0.0000
   3159 O          60.4798   19.4730   72.0488 O.3   3112  HOH3112     0.0000
   3160 O          16.0453   47.1788   39.0375 O.3   3113  HOH3113     0.0000
   3161 O          50.6064   63.9075   83.4720 O.3   3114  HOH3114     0.0000
   3162 O           6.1720    2.7443   27.6143 O.3   3115  HOH3115     0.0000
   3163 O          27.6143    2.7443    6.1720 O.3   3116  HOH3116     0.0000
   3164 O          83.4720   63.9075   50.6064 O.3   3117  HOH3117     0.0000
   3165 O          39.0375   47.1788   16.0453 O.3   3118  HOH3118     0.0000
   3166 O          72.0488   19.4730   60.4798 O.3   3119  HOH3119     0.0000
   3167 O           6.1720   72.0488   47.1788 O.3   3120  HOH3120     0.0000
   3168 O          50.6064   39.0375   19.4730 O.3   3121  HOH3121     0.0000
   3169 O          16.0453   83.4720    2.7443 O.3   3122  HOH3122     0.0000
   3170 O          60.4798   27.6143   63.9075 O.3   3123  HOH3123     0.0000
   3171 O          47.1788   50.6064   27.6143 O.3   3124  HOH3124     0.0000
   3172 O          19.4730    6.1720   83.4720 O.3   3125  HOH3125     0.0000
   3173 O           2.7443   60.4798   39.0375 O.3   3126  HOH3126     0.0000
   3174 O          63.9075   16.0453   72.0488 O.3   3127  HOH3127     0.0000
   3175 O          69.3960   49.8315   38.2625 O.3   3128  HOH3128     0.0000
   3176 O          41.6902   16.8202   82.6970 O.3   3129  HOH3129     0.0000
   3177 O          24.9615   61.2547   28.3892 O.3   3130  HOH3130     0.0000
   3178 O          86.1247    5.3970   72.8237 O.3   3131  HOH3131     0.0000
   3179 O          49.8315   28.3892   86.1247 O.3   3132  HOH3132     0.0000
   3180 O          16.8202   72.8237   24.9615 O.3   3133  HOH3133     0.0000
   3181 O          61.2547   38.2625   41.6902 O.3   3134  HOH3134     0.0000
   3182 O           5.3970   82.6970   69.3960 O.3   3135  HOH3135     0.0000
   3183 O          28.3892   69.3960   16.8202 O.3   3136  HOH3136     0.0000
   3184 O          72.8237   41.6902   49.8315 O.3   3137  HOH3137     0.0000
   3185 O          38.2625   24.9615    5.3970 O.3   3138  HOH3138     0.0000
   3186 O          82.6970   86.1247   61.2547 O.3   3139  HOH3139     0.0000
   3187 O          61.2547   41.6902   38.2625 O.3   3140  HOH3140     0.0000
   3188 O           5.3970   69.3960   82.6970 O.3   3141  HOH3141     0.0000
   3189 O          49.8315   86.1247   28.3892 O.3   3142  HOH3142     0.0000
   3190 O          16.8202   24.9615   72.8237 O.3   3143  HOH3143     0.0000
   3191 O          82.6970   61.2547   86.1247 O.3   3144  HOH3144     0.0000
   3192 O          38.2625    5.3970   24.9615 O.3   3145  HOH3145     0.0000
   3193 O          72.8237   49.8315   41.6902 O.3   3146  HOH3146     0.0000
   3194 O          28.3892   16.8202   69.3960 O.3   3147  HOH3147     0.0000
   3195 O          41.6902   82.6970   16.8202 O.3   3148  HOH3148     0.0000
   3196 O          69.3960   38.2625   49.8315 O.3   3149  HOH3149     0.0000
   3197 O          86.1247   72.8237    5.3970 O.3   3150  HOH3150     0.0000
   3198 O          24.9615   28.3892   61.2547 O.3   3151  HOH3151     0.0000
   3199 O          19.4730   83.4720    6.1720 O.3   3152  HOH3152     0.0000
   3200 O          47.1788   27.6143   50.6064 O.3   3153  HOH3153     0.0000
   3201 O          63.9075   72.0488   16.0453 O.3   3154  HOH3154     0.0000
   3202 O           2.7443   39.0375   60.4798 O.3   3155  HOH3155     0.0000
   3203 O          39.0375   16.0453   47.1788 O.3   3156  HOH3156     0.0000
   3204 O          72.0488   60.4798   19.4730 O.3   3157  HOH3157     0.0000
   3205 O          27.6143    6.1720    2.7443 O.3   3158  HOH3158     0.0000
   3206 O          83.4720   50.6064   63.9075 O.3   3159  HOH3159     0.0000
   3207 O          60.4798   63.9075   27.6143 O.3   3160  HOH3160     0.0000
   3208 O          16.0453    2.7443   83.4720 O.3   3161  HOH3161     0.0000
   3209 O          50.6064   19.4730   39.0375 O.3   3162  HOH3162     0.0000
   3210 O           6.1720   47.1788   72.0488 O.3   3163  HOH3163     0.0000
   3211 O          27.6143   47.1788   50.6064 O.3   3164  HOH3164     0.0000
   3212 O          83.4720   19.4730    6.1720 O.3   3165  HOH3165     0.0000
   3213 O          39.0375    2.7443   60.4798 O.3   3166  HOH3166     0.0000
   3214 O          72.0488   63.9075   16.0453 O.3   3167  HOH3167     0.0000
   3215 O           6.1720   27.6143    2.7443 O.3   3168  HOH3168     0.0000
   3216 O          50.6064   83.4720   63.9075 O.3   3169  HOH3169     0.0000
   3217 O          16.0453   39.0375   47.1788 O.3   3170  HOH3170     0.0000
   3218 O          60.4798   72.0488   19.4730 O.3   3171  HOH3171     0.0000
   3219 O          47.1788    6.1720   72.0488 O.3   3172  HOH3172     0.0000
   3220 O          19.4730   50.6064   39.0375 O.3   3173  HOH3173     0.0000
   3221 O           2.7443   16.0453   83.4720 O.3   3174  HOH3174     0.0000
   3222 O          63.9075   60.4798   27.6143 O.3   3175  HOH3175     0.0000
   3223 O          69.3960    5.3970   82.6970 O.3   3176  HOH3176     0.0000
   3224 O          41.6902   61.2547   38.2625 O.3   3177  HOH3177     0.0000
   3225 O          24.9615   16.8202   72.8237 O.3   3178  HOH3178     0.0000
   3226 O          86.1247   49.8315   28.3892 O.3   3179  HOH3179     0.0000
   3227 O          49.8315   72.8237   41.6902 O.3   3180  HOH3180     0.0000
   3228 O          16.8202   28.3892   69.3960 O.3   3181  HOH3181     0.0000
   3229 O          61.2547   82.6970   86.1247 O.3   3182  HOH3182     0.0000
   3230 O           5.3970   38.2625   24.9615 O.3   3183  HOH3183     0.0000
   3231 O          28.3892   24.9615   61.2547 O.3   3184  HOH3184     0.0000
   3232 O          72.8237   86.1247    5.3970 O.3   3185  HOH3185     0.0000
   3233 O          38.2625   69.3960   49.8315 O.3   3186  HOH3186     0.0000
   3234 O          82.6970   41.6902   16.8202 O.3   3187  HOH3187     0.0000
   3235 O          56.2612   21.6272   82.4011 O.3   3188  HOH3188     0.0000
   3236 O          11.8267   45.0246   28.6851 O.3   3189  HOH3189     0.0000
   3237 O          54.8251   66.0617   73.1196 O.3   3190  HOH3190     0.0000
   3238 O          37.9666   10.3906    0.5901 O.3   3191  HOH3191     0.0000
   3239 O          82.4011   56.2612   21.6272 O.3   3192  HOH3192     0.0000
   3240 O          28.6851   11.8267   45.0246 O.3   3193  HOH3193     0.0000
   3241 O          73.1196   54.8251   66.0617 O.3   3194  HOH3194     0.0000
   3242 O           0.5901   37.9666   10.3906 O.3   3195  HOH3195     0.0000
   3243 O          21.6272   82.4011   56.2612 O.3   3196  HOH3196     0.0000
   3244 O          45.0246   28.6851   11.8267 O.3   3197  HOH3197     0.0000
   3245 O          66.0617   73.1196   54.8251 O.3   3198  HOH3198     0.0000
   3246 O          67.2418   32.6078    6.4679 O.3   3199  HOH3199     0.0000
   3247 O          88.2789   78.4784   50.9024 O.3   3200  HOH3200     0.0000
   3248 O          22.8073   34.0439   15.7494 O.3   3201  HOH3201     0.0000
   3249 O          43.8444   77.0423   60.1839 O.3   3202  HOH3202     0.0000
   3250 O          77.0423   60.1839   43.8444 O.3   3203  HOH3203     0.0000
   3251 O          34.0439   15.7494   22.8073 O.3   3204  HOH3204     0.0000
   3252 O          78.4784   50.9024   88.2789 O.3   3205  HOH3205     0.0000
   3253 O          32.6078    6.4679   67.2418 O.3   3206  HOH3206     0.0000
   3254 O          15.7494   22.8073   34.0439 O.3   3207  HOH3207     0.0000
   3255 O          60.1839   43.8444   77.0423 O.3   3208  HOH3208     0.0000
   3256 O           6.4679   67.2418   32.6078 O.3   3209  HOH3209     0.0000
   3257 O          50.9024   88.2789   78.4784 O.3   3210  HOH3210     0.0000
   3258 O          78.4784   88.2789   50.9024 O.3   3211  HOH3211     0.0000
   3259 O          32.6078   67.2418    6.4679 O.3   3212  HOH3212     0.0000
   3260 O          77.0423   43.8444   60.1839 O.3   3213  HOH3213     0.0000
   3261 O          34.0439   22.8073   15.7494 O.3   3214  HOH3214     0.0000
   3262 O          50.9024   78.4784   88.2789 O.3   3215  HOH3215     0.0000
   3263 O           6.4679   32.6078   67.2418 O.3   3216  HOH3216     0.0000
   3264 O          60.1839   77.0423   43.8444 O.3   3217  HOH3217     0.0000
   3265 O          15.7494   34.0439   22.8073 O.3   3218  HOH3218     0.0000
   3266 O          88.2789   50.9024   78.4784 O.3   3219  HOH3219     0.0000
   3267 O          67.2418    6.4679   32.6078 O.3   3220  HOH3220     0.0000
   3268 O          43.8444   60.1839   77.0423 O.3   3221  HOH3221     0.0000
   3269 O          22.8073   15.7494   34.0439 O.3   3222  HOH3222     0.0000
   3270 O          21.6272   56.2612   82.4011 O.3   3223  HOH3223     0.0000
   3271 O           0.5901   10.3906   37.9666 O.3   3224  HOH3224     0.0000
   3272 O          66.0617   54.8251   73.1196 O.3   3225  HOH3225     0.0000
   3273 O          45.0246   11.8267   28.6851 O.3   3226  HOH3226     0.0000
   3274 O          11.8267   28.6851   45.0246 O.3   3227  HOH3227     0.0000
   3275 O          54.8251   73.1196   66.0617 O.3   3228  HOH3228     0.0000
   3276 O          10.3906   37.9666    0.5901 O.3   3229  HOH3229     0.0000
   3277 O          56.2612   82.4011   21.6272 O.3   3230  HOH3230     0.0000
   3278 O          73.1196   66.0617   54.8251 O.3   3231  HOH3231     0.0000
   3279 O          28.6851   45.0246   11.8267 O.3   3232  HOH3232     0.0000
   3280 O          82.4011   21.6272   56.2612 O.3   3233  HOH3233     0.0000
   3281 O          37.9666    0.5901   10.3906 O.3   3234  HOH3234     0.0000
   3282 O          10.3906   45.0246   82.4011 O.3   3235  HOH3235     0.0000
   3283 O          56.2612   66.0617   37.9666 O.3   3236  HOH3236     0.0000
   3284 O          11.8267    0.5901   73.1196 O.3   3237  HOH3237     0.0000
   3285 O          54.8251   21.6272   28.6851 O.3   3238  HOH3238     0.0000
   3286 O          37.9666   54.8251   45.0246 O.3   3239  HOH3239     0.0000
   3287 O          82.4011   11.8267   66.0617 O.3   3240  HOH3240     0.0000
   3288 O          28.6851   56.2612    0.5901 O.3   3241  HOH3241     0.0000
   3289 O          73.1196   10.3906   21.6272 O.3   3242  HOH3242     0.0000
   3290 O           0.5901   82.4011   54.8251 O.3   3243  HOH3243     0.0000
   3291 O          21.6272   37.9666   11.8267 O.3   3244  HOH3244     0.0000
   3292 O          45.0246   73.1196   56.2612 O.3   3245  HOH3245     0.0000
   3293 O          66.0617   28.6851   10.3906 O.3   3246  HOH3246     0.0000
   3294 O          67.2418   77.0423   50.9024 O.3   3247  HOH3247     0.0000
   3295 O          88.2789   34.0439    6.4679 O.3   3248  HOH3248     0.0000
   3296 O          22.8073   78.4784   60.1839 O.3   3249  HOH3249     0.0000
   3297 O          43.8444   32.6078   15.7494 O.3   3250  HOH3250     0.0000
   3298 O          77.0423   15.7494   88.2789 O.3   3251  HOH3251     0.0000
   3299 O          34.0439   60.1839   67.2418 O.3   3252  HOH3252     0.0000
   3300 O          78.4784    6.4679   43.8444 O.3   3253  HOH3253     0.0000
   3301 O          32.6078   50.9024   22.8073 O.3   3254  HOH3254     0.0000
   3302 O          15.7494   67.2418   78.4784 O.3   3255  HOH3255     0.0000
   3303 O          60.1839   88.2789   32.6078 O.3   3256  HOH3256     0.0000
   3304 O           6.4679   22.8073   77.0423 O.3   3257  HOH3257     0.0000
   3305 O          50.9024   43.8444   34.0439 O.3   3258  HOH3258     0.0000
   3306 O          78.4784   43.8444    6.4679 O.3   3259  HOH3259     0.0000
   3307 O          32.6078   22.8073   50.9024 O.3   3260  HOH3260     0.0000
   3308 O          77.0423   88.2789   15.7494 O.3   3261  HOH3261     0.0000
   3309 O          34.0439   67.2418   60.1839 O.3   3262  HOH3262     0.0000
   3310 O          50.9024   34.0439   43.8444 O.3   3263  HOH3263     0.0000
   3311 O           6.4679   77.0423   22.8073 O.3   3264  HOH3264     0.0000
   3312 O          60.1839   32.6078   88.2789 O.3   3265  HOH3265     0.0000
   3313 O          15.7494   78.4784   67.2418 O.3   3266  HOH3266     0.0000
   3314 O          88.2789    6.4679   34.0439 O.3   3267  HOH3267     0.0000
   3315 O          67.2418   50.9024   77.0423 O.3   3268  HOH3268     0.0000
   3316 O          43.8444   15.7494   32.6078 O.3   3269  HOH3269     0.0000
   3317 O          22.8073   60.1839   78.4784 O.3   3270  HOH3270     0.0000
   3318 O          21.6272   11.8267   37.9666 O.3   3271  HOH3271     0.0000
   3319 O           0.5901   54.8251   82.4011 O.3   3272  HOH3272     0.0000
   3320 O          66.0617   10.3906   28.6851 O.3   3273  HOH3273     0.0000
   3321 O          45.0246   56.2612   73.1196 O.3   3274  HOH3274     0.0000
   3322 O          11.8267   73.1196    0.5901 O.3   3275  HOH3275     0.0000
   3323 O          54.8251   28.6851   21.6272 O.3   3276  HOH3276     0.0000
   3324 O          10.3906   82.4011   45.0246 O.3   3277  HOH3277     0.0000
   3325 O          56.2612   37.9666   66.0617 O.3   3278  HOH3278     0.0000
   3326 O          73.1196   21.6272   10.3906 O.3   3279  HOH3279     0.0000
   3327 O          28.6851    0.5901   56.2612 O.3   3280  HOH3280     0.0000
   3328 O          82.4011   66.0617   11.8267 O.3   3281  HOH3281     0.0000
   3329 O          37.9666   45.0246   54.8251 O.3   3282  HOH3282     0.0000
   3330 O          54.8251    0.5901   82.4011 O.3   3283  HOH3283     0.0000
   3331 O          11.8267   21.6272   37.9666 O.3   3284  HOH3284     0.0000
   3332 O          56.2612   45.0246   73.1196 O.3   3285  HOH3285     0.0000
   3333 O          10.3906   66.0617   28.6851 O.3   3286  HOH3286     0.0000
   3334 O          82.4011   10.3906   45.0246 O.3   3287  HOH3287     0.0000
   3335 O          37.9666   56.2612   66.0617 O.3   3288  HOH3288     0.0000
   3336 O          73.1196   11.8267    0.5901 O.3   3289  HOH3289     0.0000
   3337 O          28.6851   54.8251   21.6272 O.3   3290  HOH3290     0.0000
   3338 O          45.0246   37.9666   54.8251 O.3   3291  HOH3291     0.0000
   3339 O          66.0617   82.4011   11.8267 O.3   3292  HOH3292     0.0000
   3340 O           0.5901   28.6851   56.2612 O.3   3293  HOH3293     0.0000
   3341 O          21.6272   73.1196   10.3906 O.3   3294  HOH3294     0.0000
   3342 O          22.8073   32.6078   50.9024 O.3   3295  HOH3295     0.0000
   3343 O          43.8444   78.4784    6.4679 O.3   3296  HOH3296     0.0000
   3344 O          67.2418   34.0439   60.1839 O.3   3297  HOH3297     0.0000
   3345 O          88.2789   77.0423   15.7494 O.3   3298  HOH3298     0.0000
   3346 O          32.6078   60.1839   88.2789 O.3   3299  HOH3299     0.0000
   3347 O          78.4784   15.7494   67.2418 O.3   3300  HOH3300     0.0000
   3348 O          34.0439   50.9024   43.8444 O.3   3301  HOH3301     0.0000
   3349 O          77.0423    6.4679   22.8073 O.3   3302  HOH3302     0.0000
   3350 O          60.1839   22.8073   78.4784 O.3   3303  HOH3303     0.0000
   3351 O          15.7494   43.8444   32.6078 O.3   3304  HOH3304     0.0000
   3352 O          50.9024   67.2418   77.0423 O.3   3305  HOH3305     0.0000
   3353 O           6.4679   88.2789   34.0439 O.3   3306  HOH3306     0.0000
   3354 O          34.0439   88.2789    6.4679 O.3   3307  HOH3307     0.0000
   3355 O          77.0423   67.2418   50.9024 O.3   3308  HOH3308     0.0000
   3356 O          32.6078   43.8444   15.7494 O.3   3309  HOH3309     0.0000
   3357 O          78.4784   22.8073   60.1839 O.3   3310  HOH3310     0.0000
   3358 O           6.4679   78.4784   43.8444 O.3   3311  HOH3311     0.0000
   3359 O          50.9024   32.6078   22.8073 O.3   3312  HOH3312     0.0000
   3360 O          15.7494   77.0423   88.2789 O.3   3313  HOH3313     0.0000
   3361 O          60.1839   34.0439   67.2418 O.3   3314  HOH3314     0.0000
   3362 O          43.8444   50.9024   34.0439 O.3   3315  HOH3315     0.0000
   3363 O          22.8073    6.4679   77.0423 O.3   3316  HOH3316     0.0000
   3364 O          88.2789   60.1839   32.6078 O.3   3317  HOH3317     0.0000
   3365 O          67.2418   15.7494   78.4784 O.3   3318  HOH3318     0.0000
   3366 O          66.0617   56.2612   37.9666 O.3   3319  HOH3319     0.0000
   3367 O          45.0246   10.3906   82.4011 O.3   3320  HOH3320     0.0000
   3368 O          21.6272   54.8251   28.6851 O.3   3321  HOH3321     0.0000
   3369 O           0.5901   11.8267   73.1196 O.3   3322  HOH3322     0.0000
   3370 O          56.2612   28.6851    0.5901 O.3   3323  HOH3323     0.0000
   3371 O          10.3906   73.1196   21.6272 O.3   3324  HOH3324     0.0000
   3372 O          54.8251   37.9666   45.0246 O.3   3325  HOH3325     0.0000
   3373 O          11.8267   82.4011   66.0617 O.3   3326  HOH3326     0.0000
   3374 O          28.6851   66.0617   10.3906 O.3   3327  HOH3327     0.0000
   3375 O          73.1196   45.0246   56.2612 O.3   3328  HOH3328     0.0000
   3376 O          37.9666   21.6272   11.8267 O.3   3329  HOH3329     0.0000
   3377 O          82.4011    0.5901   54.8251 O.3   3330  HOH3330     0.0000
   3378 O          54.8251   45.0246   37.9666 O.3   3331  HOH3331     0.0000
   3379 O          11.8267   66.0617   82.4011 O.3   3332  HOH3332     0.0000
   3380 O          56.2612    0.5901   28.6851 O.3   3333  HOH3333     0.0000
   3381 O          10.3906   21.6272   73.1196 O.3   3334  HOH3334     0.0000
   3382 O          82.4011   54.8251    0.5901 O.3   3335  HOH3335     0.0000
   3383 O          37.9666   11.8267   21.6272 O.3   3336  HOH3336     0.0000
   3384 O          73.1196   56.2612   45.0246 O.3   3337  HOH3337     0.0000
   3385 O          28.6851   10.3906   66.0617 O.3   3338  HOH3338     0.0000
   3386 O          45.0246   82.4011   10.3906 O.3   3339  HOH3339     0.0000
   3387 O          66.0617   37.9666   56.2612 O.3   3340  HOH3340     0.0000
   3388 O           0.5901   73.1196   11.8267 O.3   3341  HOH3341     0.0000
   3389 O          21.6272   28.6851   54.8251 O.3   3342  HOH3342     0.0000
   3390 O          22.8073   77.0423    6.4679 O.3   3343  HOH3343     0.0000
   3391 O          43.8444   34.0439   50.9024 O.3   3344  HOH3344     0.0000
   3392 O          67.2418   78.4784   15.7494 O.3   3345  HOH3345     0.0000
   3393 O          88.2789   32.6078   60.1839 O.3   3346  HOH3346     0.0000
   3394 O          32.6078   15.7494   43.8444 O.3   3347  HOH3347     0.0000
   3395 O          78.4784   60.1839   22.8073 O.3   3348  HOH3348     0.0000
   3396 O          34.0439    6.4679   88.2789 O.3   3349  HOH3349     0.0000
   3397 O          77.0423   50.9024   67.2418 O.3   3350  HOH3350     0.0000
   3398 O          60.1839   67.2418   34.0439 O.3   3351  HOH3351     0.0000
   3399 O          15.7494   88.2789   77.0423 O.3   3352  HOH3352     0.0000
   3400 O          50.9024   22.8073   32.6078 O.3   3353  HOH3353     0.0000
   3401 O           6.4679   43.8444   78.4784 O.3   3354  HOH3354     0.0000
   3402 O          34.0439   43.8444   50.9024 O.3   3355  HOH3355     0.0000
   3403 O          77.0423   22.8073    6.4679 O.3   3356  HOH3356     0.0000
   3404 O          32.6078   88.2789   60.1839 O.3   3357  HOH3357     0.0000
   3405 O          78.4784   67.2418   15.7494 O.3   3358  HOH3358     0.0000
   3406 O           6.4679   34.0439   88.2789 O.3   3359  HOH3359     0.0000
   3407 O          50.9024   77.0423   67.2418 O.3   3360  HOH3360     0.0000
   3408 O          15.7494   32.6078   43.8444 O.3   3361  HOH3361     0.0000
   3409 O          60.1839   78.4784   22.8073 O.3   3362  HOH3362     0.0000
   3410 O          43.8444    6.4679   78.4784 O.3   3363  HOH3363     0.0000
   3411 O          22.8073   50.9024   32.6078 O.3   3364  HOH3364     0.0000
   3412 O          88.2789   15.7494   77.0423 O.3   3365  HOH3365     0.0000
   3413 O          67.2418   60.1839   34.0439 O.3   3366  HOH3366     0.0000
   3414 O          66.0617   11.8267   82.4011 O.3   3367  HOH3367     0.0000
   3415 O          45.0246   54.8251   37.9666 O.3   3368  HOH3368     0.0000
   3416 O          21.6272   10.3906   73.1196 O.3   3369  HOH3369     0.0000
   3417 O           0.5901   56.2612   28.6851 O.3   3370  HOH3370     0.0000
   3418 O          56.2612   73.1196   45.0246 O.3   3371  HOH3371     0.0000
   3419 O          10.3906   28.6851   66.0617 O.3   3372  HOH3372     0.0000
   3420 O          54.8251   82.4011    0.5901 O.3   3373  HOH3373     0.0000
   3421 O          11.8267   37.9666   21.6272 O.3   3374  HOH3374     0.0000
   3422 O          28.6851   21.6272   54.8251 O.3   3375  HOH3375     0.0000
   3423 O          73.1196    0.5901   11.8267 O.3   3376  HOH3376     0.0000
   3424 O          37.9666   66.0617   56.2612 O.3   3377  HOH3377     0.0000
   3425 O          82.4011   45.0246   10.3906 O.3   3378  HOH3378     0.0000
   3426 O          55.4125   22.5176   80.4042 O.3   3379  HOH3379     0.0000
   3427 O          10.9780   44.1341   30.6820 O.3   3380  HOH3380     0.0000
   3428 O          55.6738   66.9521   75.1165 O.3   3381  HOH3381     0.0000
   3429 O          35.9697   11.2393   88.5686 O.3   3382  HOH3382     0.0000
   3430 O          80.4042   55.4125   22.5176 O.3   3383  HOH3383     0.0000
   3431 O          30.6820   10.9780   44.1341 O.3   3384  HOH3384     0.0000
   3432 O          75.1165   55.6738   66.9521 O.3   3385  HOH3385     0.0000
   3433 O          88.5686   35.9697   11.2393 O.3   3386  HOH3386     0.0000
   3434 O          22.5176   80.4042   55.4125 O.3   3387  HOH3387     0.0000
   3435 O          44.1341   30.6820   10.9780 O.3   3388  HOH3388     0.0000
   3436 O          66.9521   75.1165   55.6738 O.3   3389  HOH3389     0.0000
   3437 O          66.3514   33.4565    8.4648 O.3   3390  HOH3390     0.0000
   3438 O           0.3004   77.6297   52.8993 O.3   3391  HOH3391     0.0000
   3439 O          21.9169   33.1952   13.7525 O.3   3392  HOH3392     0.0000
   3440 O          44.7349   77.8910   58.1870 O.3   3393  HOH3393     0.0000
   3441 O          77.8910   58.1870   44.7349 O.3   3394  HOH3394     0.0000
   3442 O          33.1952   13.7525   21.9169 O.3   3395  HOH3395     0.0000
   3443 O          77.6297   52.8993    0.3004 O.3   3396  HOH3396     0.0000
   3444 O          33.4565    8.4648   66.3514 O.3   3397  HOH3397     0.0000
   3445 O          13.7525   21.9169   33.1952 O.3   3398  HOH3398     0.0000
   3446 O          58.1870   44.7349   77.8910 O.3   3399  HOH3399     0.0000
   3447 O           8.4648   66.3514   33.4565 O.3   3400  HOH3400     0.0000
   3448 O          52.8993    0.3004   77.6297 O.3   3401  HOH3401     0.0000
   3449 O          77.6297    0.3004   52.8993 O.3   3402  HOH3402     0.0000
   3450 O          33.4565   66.3514    8.4648 O.3   3403  HOH3403     0.0000
   3451 O          77.8910   44.7349   58.1870 O.3   3404  HOH3404     0.0000
   3452 O          33.1952   21.9169   13.7525 O.3   3405  HOH3405     0.0000
   3453 O          52.8993   77.6297    0.3004 O.3   3406  HOH3406     0.0000
   3454 O           8.4648   33.4565   66.3514 O.3   3407  HOH3407     0.0000
   3455 O          58.1870   77.8910   44.7349 O.3   3408  HOH3408     0.0000
   3456 O          13.7525   33.1952   21.9169 O.3   3409  HOH3409     0.0000
   3457 O           0.3004   52.8993   77.6297 O.3   3410  HOH3410     0.0000
   3458 O          66.3514    8.4648   33.4565 O.3   3411  HOH3411     0.0000
   3459 O          44.7349   58.1870   77.8910 O.3   3412  HOH3412     0.0000
   3460 O          21.9169   13.7525   33.1952 O.3   3413  HOH3413     0.0000
   3461 O          22.5176   55.4125   80.4042 O.3   3414  HOH3414     0.0000
   3462 O          88.5686   11.2393   35.9697 O.3   3415  HOH3415     0.0000
   3463 O          66.9521   55.6738   75.1165 O.3   3416  HOH3416     0.0000
   3464 O          44.1341   10.9780   30.6820 O.3   3417  HOH3417     0.0000
   3465 O          10.9780   30.6820   44.1341 O.3   3418  HOH3418     0.0000
   3466 O          55.6738   75.1165   66.9521 O.3   3419  HOH3419     0.0000
   3467 O          11.2393   35.9697   88.5686 O.3   3420  HOH3420     0.0000
   3468 O          55.4125   80.4042   22.5176 O.3   3421  HOH3421     0.0000
   3469 O          75.1165   66.9521   55.6738 O.3   3422  HOH3422     0.0000
   3470 O          30.6820   44.1341   10.9780 O.3   3423  HOH3423     0.0000
   3471 O          80.4042   22.5176   55.4125 O.3   3424  HOH3424     0.0000
   3472 O          35.9697   88.5686   11.2393 O.3   3425  HOH3425     0.0000
   3473 O          11.2393   44.1341   80.4042 O.3   3426  HOH3426     0.0000
   3474 O          55.4125   66.9521   35.9697 O.3   3427  HOH3427     0.0000
   3475 O          10.9780   88.5686   75.1165 O.3   3428  HOH3428     0.0000
   3476 O          55.6738   22.5176   30.6820 O.3   3429  HOH3429     0.0000
   3477 O          35.9697   55.6738   44.1341 O.3   3430  HOH3430     0.0000
   3478 O          80.4042   10.9780   66.9521 O.3   3431  HOH3431     0.0000
   3479 O          30.6820   55.4125   88.5686 O.3   3432  HOH3432     0.0000
   3480 O          75.1165   11.2393   22.5176 O.3   3433  HOH3433     0.0000
   3481 O          88.5686   80.4042   55.6738 O.3   3434  HOH3434     0.0000
   3482 O          22.5176   35.9697   10.9780 O.3   3435  HOH3435     0.0000
   3483 O          44.1341   75.1165   55.4125 O.3   3436  HOH3436     0.0000
   3484 O          66.9521   30.6820   11.2393 O.3   3437  HOH3437     0.0000
   3485 O          66.3514   77.8910   52.8993 O.3   3438  HOH3438     0.0000
   3486 O           0.3004   33.1952    8.4648 O.3   3439  HOH3439     0.0000
   3487 O          21.9169   77.6297   58.1870 O.3   3440  HOH3440     0.0000
   3488 O          44.7349   33.4565   13.7525 O.3   3441  HOH3441     0.0000
   3489 O          77.8910   13.7525    0.3004 O.3   3442  HOH3442     0.0000
   3490 O          33.1952   58.1870   66.3514 O.3   3443  HOH3443     0.0000
   3491 O          77.6297    8.4648   44.7349 O.3   3444  HOH3444     0.0000
   3492 O          33.4565   52.8993   21.9169 O.3   3445  HOH3445     0.0000
   3493 O          13.7525   66.3514   77.6297 O.3   3446  HOH3446     0.0000
   3494 O          58.1870    0.3004   33.4565 O.3   3447  HOH3447     0.0000
   3495 O           8.4648   21.9169   77.8910 O.3   3448  HOH3448     0.0000
   3496 O          52.8993   44.7349   33.1952 O.3   3449  HOH3449     0.0000
   3497 O          77.6297   44.7349    8.4648 O.3   3450  HOH3450     0.0000
   3498 O          33.4565   21.9169   52.8993 O.3   3451  HOH3451     0.0000
   3499 O          77.8910    0.3004   13.7525 O.3   3452  HOH3452     0.0000
   3500 O          33.1952   66.3514   58.1870 O.3   3453  HOH3453     0.0000
   3501 O          52.8993   33.1952   44.7349 O.3   3454  HOH3454     0.0000
   3502 O           8.4648   77.8910   21.9169 O.3   3455  HOH3455     0.0000
   3503 O          58.1870   33.4565    0.3004 O.3   3456  HOH3456     0.0000
   3504 O          13.7525   77.6297   66.3514 O.3   3457  HOH3457     0.0000
   3505 O           0.3004    8.4648   33.1952 O.3   3458  HOH3458     0.0000
   3506 O          66.3514   52.8993   77.8910 O.3   3459  HOH3459     0.0000
   3507 O          44.7349   13.7525   33.4565 O.3   3460  HOH3460     0.0000
   3508 O          21.9169   58.1870   77.6297 O.3   3461  HOH3461     0.0000
   3509 O          22.5176   10.9780   35.9697 O.3   3462  HOH3462     0.0000
   3510 O          88.5686   55.6738   80.4042 O.3   3463  HOH3463     0.0000
   3511 O          66.9521   11.2393   30.6820 O.3   3464  HOH3464     0.0000
   3512 O          44.1341   55.4125   75.1165 O.3   3465  HOH3465     0.0000
   3513 O          10.9780   75.1165   88.5686 O.3   3466  HOH3466     0.0000
   3514 O          55.6738   30.6820   22.5176 O.3   3467  HOH3467     0.0000
   3515 O          11.2393   80.4042   44.1341 O.3   3468  HOH3468     0.0000
   3516 O          55.4125   35.9697   66.9521 O.3   3469  HOH3469     0.0000
   3517 O          75.1165   22.5176   11.2393 O.3   3470  HOH3470     0.0000
   3518 O          30.6820   88.5686   55.4125 O.3   3471  HOH3471     0.0000
   3519 O          80.4042   66.9521   10.9780 O.3   3472  HOH3472     0.0000
   3520 O          35.9697   44.1341   55.6738 O.3   3473  HOH3473     0.0000
   3521 O          55.6738   88.5686   80.4042 O.3   3474  HOH3474     0.0000
   3522 O          10.9780   22.5176   35.9697 O.3   3475  HOH3475     0.0000
   3523 O          55.4125   44.1341   75.1165 O.3   3476  HOH3476     0.0000
   3524 O          11.2393   66.9521   30.6820 O.3   3477  HOH3477     0.0000
   3525 O          80.4042   11.2393   44.1341 O.3   3478  HOH3478     0.0000
   3526 O          35.9697   55.4125   66.9521 O.3   3479  HOH3479     0.0000
   3527 O          75.1165   10.9780   88.5686 O.3   3480  HOH3480     0.0000
   3528 O          30.6820   55.6738   22.5176 O.3   3481  HOH3481     0.0000
   3529 O          44.1341   35.9697   55.6738 O.3   3482  HOH3482     0.0000
   3530 O          66.9521   80.4042   10.9780 O.3   3483  HOH3483     0.0000
   3531 O          88.5686   30.6820   55.4125 O.3   3484  HOH3484     0.0000
   3532 O          22.5176   75.1165   11.2393 O.3   3485  HOH3485     0.0000
   3533 O          21.9169   33.4565   52.8993 O.3   3486  HOH3486     0.0000
   3534 O          44.7349   77.6297    8.4648 O.3   3487  HOH3487     0.0000
   3535 O          66.3514   33.1952   58.1870 O.3   3488  HOH3488     0.0000
   3536 O           0.3004   77.8910   13.7525 O.3   3489  HOH3489     0.0000
   3537 O          33.4565   58.1870    0.3004 O.3   3490  HOH3490     0.0000
   3538 O          77.6297   13.7525   66.3514 O.3   3491  HOH3491     0.0000
   3539 O          33.1952   52.8993   44.7349 O.3   3492  HOH3492     0.0000
   3540 O          77.8910    8.4648   21.9169 O.3   3493  HOH3493     0.0000
   3541 O          58.1870   21.9169   77.6297 O.3   3494  HOH3494     0.0000
   3542 O          13.7525   44.7349   33.4565 O.3   3495  HOH3495     0.0000
   3543 O          52.8993   66.3514   77.8910 O.3   3496  HOH3496     0.0000
   3544 O           8.4648    0.3004   33.1952 O.3   3497  HOH3497     0.0000
   3545 O          33.1952    0.3004    8.4648 O.3   3498  HOH3498     0.0000
   3546 O          77.8910   66.3514   52.8993 O.3   3499  HOH3499     0.0000
   3547 O          33.4565   44.7349   13.7525 O.3   3500  HOH3500     0.0000
   3548 O          77.6297   21.9169   58.1870 O.3   3501  HOH3501     0.0000
   3549 O           8.4648   77.6297   44.7349 O.3   3502  HOH3502     0.0000
   3550 O          52.8993   33.4565   21.9169 O.3   3503  HOH3503     0.0000
   3551 O          13.7525   77.8910    0.3004 O.3   3504  HOH3504     0.0000
   3552 O          58.1870   33.1952   66.3514 O.3   3505  HOH3505     0.0000
   3553 O          44.7349   52.8993   33.1952 O.3   3506  HOH3506     0.0000
   3554 O          21.9169    8.4648   77.8910 O.3   3507  HOH3507     0.0000
   3555 O           0.3004   58.1870   33.4565 O.3   3508  HOH3508     0.0000
   3556 O          66.3514   13.7525   77.6297 O.3   3509  HOH3509     0.0000
   3557 O          66.9521   55.4125   35.9697 O.3   3510  HOH3510     0.0000
   3558 O          44.1341   11.2393   80.4042 O.3   3511  HOH3511     0.0000
   3559 O          22.5176   55.6738   30.6820 O.3   3512  HOH3512     0.0000
   3560 O          88.5686   10.9780   75.1165 O.3   3513  HOH3513     0.0000
   3561 O          55.4125   30.6820   88.5686 O.3   3514  HOH3514     0.0000
   3562 O          11.2393   75.1165   22.5176 O.3   3515  HOH3515     0.0000
   3563 O          55.6738   35.9697   44.1341 O.3   3516  HOH3516     0.0000
   3564 O          10.9780   80.4042   66.9521 O.3   3517  HOH3517     0.0000
   3565 O          30.6820   66.9521   11.2393 O.3   3518  HOH3518     0.0000
   3566 O          75.1165   44.1341   55.4125 O.3   3519  HOH3519     0.0000
   3567 O          35.9697   22.5176   10.9780 O.3   3520  HOH3520     0.0000
   3568 O          80.4042   88.5686   55.6738 O.3   3521  HOH3521     0.0000
   3569 O          55.6738   44.1341   35.9697 O.3   3522  HOH3522     0.0000
   3570 O          10.9780   66.9521   80.4042 O.3   3523  HOH3523     0.0000
   3571 O          55.4125   88.5686   30.6820 O.3   3524  HOH3524     0.0000
   3572 O          11.2393   22.5176   75.1165 O.3   3525  HOH3525     0.0000
   3573 O          80.4042   55.6738   88.5686 O.3   3526  HOH3526     0.0000
   3574 O          35.9697   10.9780   22.5176 O.3   3527  HOH3527     0.0000
   3575 O          75.1165   55.4125   44.1341 O.3   3528  HOH3528     0.0000
   3576 O          30.6820   11.2393   66.9521 O.3   3529  HOH3529     0.0000
   3577 O          44.1341   80.4042   11.2393 O.3   3530  HOH3530     0.0000
   3578 O          66.9521   35.9697   55.4125 O.3   3531  HOH3531     0.0000
   3579 O          88.5686   75.1165   10.9780 O.3   3532  HOH3532     0.0000
   3580 O          22.5176   30.6820   55.6738 O.3   3533  HOH3533     0.0000
   3581 O          21.9169   77.8910    8.4648 O.3   3534  HOH3534     0.0000
   3582 O          44.7349   33.1952   52.8993 O.3   3535  HOH3535     0.0000
   3583 O          66.3514   77.6297   13.7525 O.3   3536  HOH3536     0.0000
   3584 O           0.3004   33.4565   58.1870 O.3   3537  HOH3537     0.0000
   3585 O          33.4565   13.7525   44.7349 O.3   3538  HOH3538     0.0000
   3586 O          77.6297   58.1870   21.9169 O.3   3539  HOH3539     0.0000
   3587 O          33.1952    8.4648    0.3004 O.3   3540  HOH3540     0.0000
   3588 O          77.8910   52.8993   66.3514 O.3   3541  HOH3541     0.0000
   3589 O          58.1870   66.3514   33.1952 O.3   3542  HOH3542     0.0000
   3590 O          13.7525    0.3004   77.8910 O.3   3543  HOH3543     0.0000
   3591 O          52.8993   21.9169   33.4565 O.3   3544  HOH3544     0.0000
   3592 O           8.4648   44.7349   77.6297 O.3   3545  HOH3545     0.0000
   3593 O          33.1952   44.7349   52.8993 O.3   3546  HOH3546     0.0000
   3594 O          77.8910   21.9169    8.4648 O.3   3547  HOH3547     0.0000
   3595 O          33.4565    0.3004   58.1870 O.3   3548  HOH3548     0.0000
   3596 O          77.6297   66.3514   13.7525 O.3   3549  HOH3549     0.0000
   3597 O           8.4648   33.1952    0.3004 O.3   3550  HOH3550     0.0000
   3598 O          52.8993   77.8910   66.3514 O.3   3551  HOH3551     0.0000
   3599 O          13.7525   33.4565   44.7349 O.3   3552  HOH3552     0.0000
   3600 O          58.1870   77.6297   21.9169 O.3   3553  HOH3553     0.0000
   3601 O          44.7349    8.4648   77.6297 O.3   3554  HOH3554     0.0000
   3602 O          21.9169   52.8993   33.4565 O.3   3555  HOH3555     0.0000
   3603 O           0.3004   13.7525   77.8910 O.3   3556  HOH3556     0.0000
   3604 O          66.3514   58.1870   33.1952 O.3   3557  HOH3557     0.0000
   3605 O          66.9521   10.9780   80.4042 O.3   3558  HOH3558     0.0000
   3606 O          44.1341   55.6738   35.9697 O.3   3559  HOH3559     0.0000
   3607 O          22.5176   11.2393   75.1165 O.3   3560  HOH3560     0.0000
   3608 O          88.5686   55.4125   30.6820 O.3   3561  HOH3561     0.0000
   3609 O          55.4125   75.1165   44.1341 O.3   3562  HOH3562     0.0000
   3610 O          11.2393   30.6820   66.9521 O.3   3563  HOH3563     0.0000
   3611 O          55.6738   80.4042   88.5686 O.3   3564  HOH3564     0.0000
   3612 O          10.9780   35.9697   22.5176 O.3   3565  HOH3565     0.0000
   3613 O          30.6820   22.5176   55.6738 O.3   3566  HOH3566     0.0000
   3614 O          75.1165   88.5686   10.9780 O.3   3567  HOH3567     0.0000
   3615 O          35.9697   66.9521   55.4125 O.3   3568  HOH3568     0.0000
   3616 O          80.4042   44.1341   11.2393 O.3   3569  HOH3569     0.0000
   3617 O          72.0745   32.1572   27.6400 O.3   3570  HOH3570     0.0000
   3618 O          27.6400   34.4945   83.4462 O.3   3571  HOH3571     0.0000
   3619 O          39.0117   76.5917   39.0117 O.3   3572  HOH3572     0.0000
   3620 O          72.0745   83.4462   78.9290 O.3   3573  HOH3573     0.0000
   3621 O          27.6400   72.0745   32.1572 O.3   3574  HOH3574     0.0000
   3622 O          83.4462   27.6400   34.4945 O.3   3575  HOH3575     0.0000
   3623 O          39.0117   39.0117   76.5917 O.3   3576  HOH3576     0.0000
   3624 O          78.9290   72.0745   83.4462 O.3   3577  HOH3577     0.0000
   3625 O          32.1572   27.6400   72.0745 O.3   3578  HOH3578     0.0000
   3626 O          34.4945   83.4462   27.6400 O.3   3579  HOH3579     0.0000
   3627 O          76.5917   39.0117   39.0117 O.3   3580  HOH3580     0.0000
   3628 O          56.7117   16.7945   61.2290 O.3   3581  HOH3581     0.0000
   3629 O           9.9400    5.4228   16.7945 O.3   3582  HOH3582     0.0000
   3630 O          12.2773   49.8573   49.8573 O.3   3583  HOH3583     0.0000
   3631 O          54.3745   61.2290    5.4228 O.3   3584  HOH3584     0.0000
   3632 O          61.2290    5.4228   54.3745 O.3   3585  HOH3585     0.0000
   3633 O          49.8573   49.8573   12.2773 O.3   3586  HOH3586     0.0000
   3634 O           5.4228   16.7945    9.9400 O.3   3587  HOH3587     0.0000
   3635 O          16.7945   61.2290   56.7117 O.3   3588  HOH3588     0.0000
   3636 O          49.8573   12.2773   49.8573 O.3   3589  HOH3589     0.0000
   3637 O           5.4228   54.3745   61.2290 O.3   3590  HOH3590     0.0000
   3638 O          61.2290   56.7117   16.7945 O.3   3591  HOH3591     0.0000
   3639 O          16.7945    9.9400    5.4228 O.3   3592  HOH3592     0.0000
   3640 O           5.4228    9.9400   16.7945 O.3   3593  HOH3593     0.0000
   3641 O          16.7945   56.7117   61.2290 O.3   3594  HOH3594     0.0000
   3642 O          61.2290   54.3745    5.4228 O.3   3595  HOH3595     0.0000
   3643 O          16.7945    5.4228    9.9400 O.3   3596  HOH3596     0.0000
   3644 O          61.2290   16.7945   56.7117 O.3   3597  HOH3597     0.0000
   3645 O           5.4228   61.2290   54.3745 O.3   3598  HOH3598     0.0000
   3646 O           9.9400   16.7945    5.4228 O.3   3599  HOH3599     0.0000
   3647 O          56.7117   61.2290   16.7945 O.3   3600  HOH3600     0.0000
   3648 O          54.3745    5.4228   61.2290 O.3   3601  HOH3601     0.0000
   3649 O          32.1572   72.0745   27.6400 O.3   3602  HOH3602     0.0000
   3650 O          78.9290   83.4462   72.0745 O.3   3603  HOH3603     0.0000
   3651 O          34.4945   27.6400   83.4462 O.3   3604  HOH3604     0.0000
   3652 O          27.6400   83.4462   34.4945 O.3   3605  HOH3605     0.0000
   3653 O          83.4462   72.0745   78.9290 O.3   3606  HOH3606     0.0000
   3654 O          72.0745   27.6400   32.1572 O.3   3607  HOH3607     0.0000
   3655 O          83.4462   34.4945   27.6400 O.3   3608  HOH3608     0.0000
   3656 O          27.6400   32.1572   72.0745 O.3   3609  HOH3609     0.0000
   3657 O          72.0745   78.9290   83.4462 O.3   3610  HOH3610     0.0000
   3658 O          72.0745   76.5917   72.0745 O.3   3611  HOH3611     0.0000
   3659 O          27.6400   78.9290   39.0117 O.3   3612  HOH3612     0.0000
   3660 O          39.0117   32.1572   83.4462 O.3   3613  HOH3613     0.0000
   3661 O          72.0745   39.0117   34.4945 O.3   3614  HOH3614     0.0000
   3662 O          27.6400   27.6400   76.5917 O.3   3615  HOH3615     0.0000
   3663 O          39.0117   83.4462   32.1572 O.3   3616  HOH3616     0.0000
   3664 O          78.9290   27.6400   39.0117 O.3   3617  HOH3617     0.0000
   3665 O          34.4945   39.0117   72.0745 O.3   3618  HOH3618     0.0000
   3666 O          76.5917   83.4462   83.4462 O.3   3619  HOH3619     0.0000
   3667 O           9.9400   49.8573   61.2290 O.3   3620  HOH3620     0.0000
   3668 O          12.2773    5.4228    5.4228 O.3   3621  HOH3621     0.0000
   3669 O          54.3745   16.7945   49.8573 O.3   3622  HOH3622     0.0000
   3670 O          61.2290   49.8573    9.9400 O.3   3623  HOH3623     0.0000
   3671 O          49.8573    5.4228   56.7117 O.3   3624  HOH3624     0.0000
   3672 O          16.7945   16.7945   12.2773 O.3   3625  HOH3625     0.0000
   3673 O          49.8573   56.7117    5.4228 O.3   3626  HOH3626     0.0000
   3674 O          61.2290   12.2773   61.2290 O.3   3627  HOH3627     0.0000
   3675 O          16.7945   54.3745   49.8573 O.3   3628  HOH3628     0.0000
   3676 O          16.7945   12.2773   16.7945 O.3   3629  HOH3629     0.0000
   3677 O          61.2290    9.9400   49.8573 O.3   3630  HOH3630     0.0000
   3678 O          16.7945   49.8573   54.3745 O.3   3631  HOH3631     0.0000
   3679 O          61.2290   61.2290   12.2773 O.3   3632  HOH3632     0.0000
   3680 O           9.9400   61.2290   49.8573 O.3   3633  HOH3633     0.0000
   3681 O          54.3745   49.8573   16.7945 O.3   3634  HOH3634     0.0000
   3682 O          78.9290   39.0117   27.6400 O.3   3635  HOH3635     0.0000
   3683 O          34.4945   72.0745   39.0117 O.3   3636  HOH3636     0.0000
   3684 O          27.6400   39.0117   78.9290 O.3   3637  HOH3637     0.0000
   3685 O          72.0745   72.0745   76.5917 O.3   3638  HOH3638     0.0000
   3686 O          27.6400   76.5917   27.6400 O.3   3639  HOH3639     0.0000
   3687 O          72.0745   34.4945   39.0117 O.3   3640  HOH3640     0.0000
   3688 O          39.0117   78.9290   27.6400 O.3   3641  HOH3641     0.0000
   3689 O          83.4462   76.5917   83.4462 O.3   3642  HOH3642     0.0000
   3690 O          39.0117   27.6400   78.9290 O.3   3643  HOH3643     0.0000
   3691 O          83.4462   39.0117   32.1572 O.3   3644  HOH3644     0.0000
   3692 O          76.5917   27.6400   27.6400 O.3   3645  HOH3645     0.0000
   3693 O          32.1572   39.0117   83.4462 O.3   3646  HOH3646     0.0000
   3694 O          12.2773   16.7945   16.7945 O.3   3647  HOH3647     0.0000
   3695 O          56.7117   49.8573    5.4228 O.3   3648  HOH3648     0.0000
   3696 O           5.4228   49.8573   56.7117 O.3   3649  HOH3649     0.0000
   3697 O          49.8573   16.7945   54.3745 O.3   3650  HOH3650     0.0000
   3698 O           5.4228   12.2773    5.4228 O.3   3651  HOH3651     0.0000
   3699 O          49.8573   54.3745   16.7945 O.3   3652  HOH3652     0.0000
   3700 O          49.8573    9.9400   61.2290 O.3   3653  HOH3653     0.0000
   3701 O          49.8573   61.2290    9.9400 O.3   3654  HOH3654     0.0000
   3702 O          12.2773   61.2290   61.2290 O.3   3655  HOH3655     0.0000
   3703 O          76.5917   72.0745   72.0745 O.3   3656  HOH3656     0.0000
   3704 O          39.0117   72.0745   34.4945 O.3   3657  HOH3657     0.0000
   3705 O          39.0117   34.4945   72.0745 O.3   3658  HOH3658     0.0000
   3706 O          83.4462   32.1572   39.0117 O.3   3659  HOH3659     0.0000
   3707 O          83.4462   83.4462   76.5917 O.3   3660  HOH3660     0.0000
   3708 O          32.1572   83.4462   39.0117 O.3   3661  HOH3661     0.0000
   3709 O          56.7117    5.4228   49.8573 O.3   3662  HOH3662     0.0000
   3710 O           5.4228    5.4228   12.2773 O.3   3663  HOH3663     0.0000
   3711 O           5.4228   56.7117   49.8573 O.3   3664  HOH3664     0.0000
   3712 O          36.0675   85.4271   18.7398 O.3   3665  HOH3665     0.0000
   3713 O          80.5020   70.0936    3.4774 O.3   3666  HOH3666     0.0000
   3714 O          75.0188   40.9926   47.9119 O.3   3667  HOH3667     0.0000
   3715 O          63.1743   30.5843   25.6591 O.3   3668  HOH3668     0.0000
   3716 O          18.7398   36.0675   85.4271 O.3   3669  HOH3669     0.0000
   3717 O           3.4774   80.5020   70.0936 O.3   3670  HOH3670     0.0000
   3718 O          47.9119   75.0188   40.9926 O.3   3671  HOH3671     0.0000
   3719 O          25.6591   63.1743   30.5843 O.3   3672  HOH3672     0.0000
   3720 O          85.4271   18.7398   36.0675 O.3   3673  HOH3673     0.0000
   3721 O          70.0936    3.4774   80.5020 O.3   3674  HOH3674     0.0000
   3722 O          40.9926   47.9119   75.0188 O.3   3675  HOH3675     0.0000
   3723 O           3.4419   52.8015   70.1292 O.3   3676  HOH3676     0.0000
   3724 O          63.2098   58.2847   25.6947 O.3   3677  HOH3677     0.0000
   3725 O          47.8764   13.8502   40.9571 O.3   3678  HOH3678     0.0000
   3726 O          18.7754    8.3670   85.3915 O.3   3679  HOH3679     0.0000
   3727 O           8.3670   85.3915   18.7754 O.3   3680  HOH3680     0.0000
   3728 O          13.8502   40.9571   47.8764 O.3   3681  HOH3681     0.0000
   3729 O          58.2847   25.6947   63.2098 O.3   3682  HOH3682     0.0000
   3730 O          52.8015   70.1292    3.4419 O.3   3683  HOH3683     0.0000
   3731 O          40.9571   47.8764   13.8502 O.3   3684  HOH3684     0.0000
   3732 O          85.3915   18.7754    8.3670 O.3   3685  HOH3685     0.0000
   3733 O          70.1292    3.4419   52.8015 O.3   3686  HOH3686     0.0000
   3734 O          25.6947   63.2098   58.2847 O.3   3687  HOH3687     0.0000
   3735 O          58.2847   63.2098   25.6947 O.3   3688  HOH3688     0.0000
   3736 O          52.8015    3.4419   70.1292 O.3   3689  HOH3689     0.0000
   3737 O           8.3670   18.7754   85.3915 O.3   3690  HOH3690     0.0000
   3738 O          13.8502   47.8764   40.9571 O.3   3691  HOH3691     0.0000
   3739 O          25.6947   58.2847   63.2098 O.3   3692  HOH3692     0.0000
   3740 O          70.1292   52.8015    3.4419 O.3   3693  HOH3693     0.0000
   3741 O          85.3915    8.3670   18.7754 O.3   3694  HOH3694     0.0000
   3742 O          40.9571   13.8502   47.8764 O.3   3695  HOH3695     0.0000
   3743 O          63.2098   25.6947   58.2847 O.3   3696  HOH3696     0.0000
   3744 O           3.4419   70.1292   52.8015 O.3   3697  HOH3697     0.0000
   3745 O          18.7754   85.3915    8.3670 O.3   3698  HOH3698     0.0000
   3746 O          47.8764   40.9571   13.8502 O.3   3699  HOH3699     0.0000
   3747 O          85.4271   36.0675   18.7398 O.3   3700  HOH3700     0.0000
   3748 O          25.6591   30.5843   63.1743 O.3   3701  HOH3701     0.0000
   3749 O          40.9926   75.0188   47.9119 O.3   3702  HOH3702     0.0000
   3750 O          70.0936   80.5020    3.4774 O.3   3703  HOH3703     0.0000
   3751 O          80.5020    3.4774   70.0936 O.3   3704  HOH3704     0.0000
   3752 O          75.0188   47.9119   40.9926 O.3   3705  HOH3705     0.0000
   3753 O          30.5843   63.1743   25.6591 O.3   3706  HOH3706     0.0000
   3754 O          36.0675   18.7398   85.4271 O.3   3707  HOH3707     0.0000
   3755 O          47.9119   40.9926   75.0188 O.3   3708  HOH3708     0.0000
   3756 O           3.4774   70.0936   80.5020 O.3   3709  HOH3709     0.0000
   3757 O          18.7398   85.4271   36.0675 O.3   3710  HOH3710     0.0000
   3758 O          63.1743   25.6591   30.5843 O.3   3711  HOH3711     0.0000
   3759 O          30.5843   70.0936   18.7398 O.3   3712  HOH3712     0.0000
   3760 O          36.0675   40.9926   63.1743 O.3   3713  HOH3713     0.0000
   3761 O          80.5020   25.6591   47.9119 O.3   3714  HOH3714     0.0000
   3762 O          75.0188   85.4271    3.4774 O.3   3715  HOH3715     0.0000
   3763 O          63.1743   75.0188   70.0936 O.3   3716  HOH3716     0.0000
   3764 O          18.7398   80.5020   40.9926 O.3   3717  HOH3717     0.0000
   3765 O           3.4774   36.0675   25.6591 O.3   3718  HOH3718     0.0000
   3766 O          47.9119   30.5843   85.4271 O.3   3719  HOH3719     0.0000
   3767 O          25.6591   18.7398   75.0188 O.3   3720  HOH3720     0.0000
   3768 O          85.4271   63.1743   80.5020 O.3   3721  HOH3721     0.0000
   3769 O          70.0936   47.9119   36.0675 O.3   3722  HOH3722     0.0000
   3770 O          40.9926    3.4774   30.5843 O.3   3723  HOH3723     0.0000
   3771 O           3.4419    8.3670   25.6947 O.3   3724  HOH3724     0.0000
   3772 O          63.2098   13.8502   70.1292 O.3   3725  HOH3725     0.0000
   3773 O          47.8764   58.2847   85.3915 O.3   3726  HOH3726     0.0000
   3774 O          18.7754   52.8015   40.9571 O.3   3727  HOH3727     0.0000
   3775 O           8.3670   40.9571   63.2098 O.3   3728  HOH3728     0.0000
   3776 O          13.8502   85.3915    3.4419 O.3   3729  HOH3729     0.0000
   3777 O          58.2847   70.1292   18.7754 O.3   3730  HOH3730     0.0000
   3778 O          52.8015   25.6947   47.8764 O.3   3731  HOH3731     0.0000
   3779 O          40.9571    3.4419   58.2847 O.3   3732  HOH3732     0.0000
   3780 O          85.3915   63.2098   52.8015 O.3   3733  HOH3733     0.0000
   3781 O          70.1292   47.8764    8.3670 O.3   3734  HOH3734     0.0000
   3782 O          25.6947   18.7754   13.8502 O.3   3735  HOH3735     0.0000
   3783 O          58.2847   18.7754   70.1292 O.3   3736  HOH3736     0.0000
   3784 O          52.8015   47.8764   25.6947 O.3   3737  HOH3737     0.0000
   3785 O           8.3670   63.2098   40.9571 O.3   3738  HOH3738     0.0000
   3786 O          13.8502    3.4419   85.3915 O.3   3739  HOH3739     0.0000
   3787 O          25.6947   13.8502   18.7754 O.3   3740  HOH3740     0.0000
   3788 O          70.1292    8.3670   47.8764 O.3   3741  HOH3741     0.0000
   3789 O          85.3915   52.8015   63.2098 O.3   3742  HOH3742     0.0000
   3790 O          40.9571   58.2847    3.4419 O.3   3743  HOH3743     0.0000
   3791 O          63.2098   70.1292   13.8502 O.3   3744  HOH3744     0.0000
   3792 O           3.4419   25.6947    8.3670 O.3   3745  HOH3745     0.0000
   3793 O          18.7754   40.9571   52.8015 O.3   3746  HOH3746     0.0000
   3794 O          47.8764   85.3915   58.2847 O.3   3747  HOH3747     0.0000
   3795 O          85.4271   80.5020   63.1743 O.3   3748  HOH3748     0.0000
   3796 O          25.6591   75.0188   18.7398 O.3   3749  HOH3749     0.0000
   3797 O          40.9926   30.5843    3.4774 O.3   3750  HOH3750     0.0000
   3798 O          70.0936   36.0675   47.9119 O.3   3751  HOH3751     0.0000
   3799 O          80.5020   47.9119   25.6591 O.3   3752  HOH3752     0.0000
   3800 O          75.0188    3.4774   85.4271 O.3   3753  HOH3753     0.0000
   3801 O          30.5843   18.7398   70.0936 O.3   3754  HOH3754     0.0000
   3802 O          36.0675   63.1743   40.9926 O.3   3755  HOH3755     0.0000
   3803 O          47.9119   85.4271   30.5843 O.3   3756  HOH3756     0.0000
   3804 O           3.4774   25.6591   36.0675 O.3   3757  HOH3757     0.0000
   3805 O          18.7398   40.9926   80.5020 O.3   3758  HOH3758     0.0000
   3806 O          63.1743   70.0936   75.0188 O.3   3759  HOH3759     0.0000
   3807 O          75.0188   25.6591   18.7398 O.3   3760  HOH3760     0.0000
   3808 O          80.5020   85.4271   63.1743 O.3   3761  HOH3761     0.0000
   3809 O          36.0675   70.0936   47.9119 O.3   3762  HOH3762     0.0000
   3810 O          30.5843   40.9926    3.4774 O.3   3763  HOH3763     0.0000
   3811 O          18.7398   30.5843   70.0936 O.3   3764  HOH3764     0.0000
   3812 O          63.1743   36.0675   40.9926 O.3   3765  HOH3765     0.0000
   3813 O          47.9119   80.5020   25.6591 O.3   3766  HOH3766     0.0000
   3814 O           3.4774   75.0188   85.4271 O.3   3767  HOH3767     0.0000
   3815 O          70.0936   63.1743   75.0188 O.3   3768  HOH3768     0.0000
   3816 O          40.9926   18.7398   80.5020 O.3   3769  HOH3769     0.0000
   3817 O          25.6591    3.4774   36.0675 O.3   3770  HOH3770     0.0000
   3818 O          85.4271   47.9119   30.5843 O.3   3771  HOH3771     0.0000
   3819 O          47.8764   52.8015   25.6947 O.3   3772  HOH3772     0.0000
   3820 O          18.7754   58.2847   70.1292 O.3   3773  HOH3773     0.0000
   3821 O           3.4419   13.8502   85.3915 O.3   3774  HOH3774     0.0000
   3822 O          63.2098    8.3670   40.9571 O.3   3775  HOH3775     0.0000
   3823 O          52.8015   85.3915   63.2098 O.3   3776  HOH3776     0.0000
   3824 O          58.2847   40.9571    3.4419 O.3   3777  HOH3777     0.0000
   3825 O          13.8502   25.6947   18.7754 O.3   3778  HOH3778     0.0000
   3826 O           8.3670   70.1292   47.8764 O.3   3779  HOH3779     0.0000
   3827 O          85.3915   47.8764   58.2847 O.3   3780  HOH3780     0.0000
   3828 O          40.9571   18.7754   52.8015 O.3   3781  HOH3781     0.0000
   3829 O          25.6947    3.4419    8.3670 O.3   3782  HOH3782     0.0000
   3830 O          70.1292   63.2098   13.8502 O.3   3783  HOH3783     0.0000
   3831 O          13.8502   63.2098   70.1292 O.3   3784  HOH3784     0.0000
   3832 O           8.3670    3.4419   25.6947 O.3   3785  HOH3785     0.0000
   3833 O          52.8015   18.7754   40.9571 O.3   3786  HOH3786     0.0000
   3834 O          58.2847   47.8764   85.3915 O.3   3787  HOH3787     0.0000
   3835 O          70.1292   58.2847   18.7754 O.3   3788  HOH3788     0.0000
   3836 O          25.6947   52.8015   47.8764 O.3   3789  HOH3789     0.0000
   3837 O          40.9571    8.3670   63.2098 O.3   3790  HOH3790     0.0000
   3838 O          85.3915   13.8502    3.4419 O.3   3791  HOH3791     0.0000
   3839 O          18.7754   25.6947   13.8502 O.3   3792  HOH3792     0.0000
   3840 O          47.8764   70.1292    8.3670 O.3   3793  HOH3793     0.0000
   3841 O          63.2098   85.3915   52.8015 O.3   3794  HOH3794     0.0000
   3842 O           3.4419   40.9571   58.2847 O.3   3795  HOH3795     0.0000
   3843 O          40.9926   36.0675   63.1743 O.3   3796  HOH3796     0.0000
   3844 O          70.0936   30.5843   18.7398 O.3   3797  HOH3797     0.0000
   3845 O          85.4271   75.0188    3.4774 O.3   3798  HOH3798     0.0000
   3846 O          25.6591   80.5020   47.9119 O.3   3799  HOH3799     0.0000
   3847 O          36.0675    3.4774   25.6591 O.3   3800  HOH3800     0.0000
   3848 O          30.5843   47.9119   85.4271 O.3   3801  HOH3801     0.0000
   3849 O          75.0188   63.1743   70.0936 O.3   3802  HOH3802     0.0000
   3850 O          80.5020   18.7398   40.9926 O.3   3803  HOH3803     0.0000
   3851 O           3.4774   40.9926   30.5843 O.3   3804  HOH3804     0.0000
   3852 O          47.9119   70.0936   36.0675 O.3   3805  HOH3805     0.0000
   3853 O          63.1743   85.4271   80.5020 O.3   3806  HOH3806     0.0000
   3854 O          18.7398   25.6591   75.0188 O.3   3807  HOH3807     0.0000
   3855 O          75.0188   70.0936   63.1743 O.3   3808  HOH3808     0.0000
   3856 O          80.5020   40.9926   18.7398 O.3   3809  HOH3809     0.0000
   3857 O          36.0675   25.6591    3.4774 O.3   3810  HOH3810     0.0000
   3858 O          30.5843   85.4271   47.9119 O.3   3811  HOH3811     0.0000
   3859 O          18.7398   75.0188   25.6591 O.3   3812  HOH3812     0.0000
   3860 O          63.1743   80.5020   85.4271 O.3   3813  HOH3813     0.0000
   3861 O          47.9119   36.0675   70.0936 O.3   3814  HOH3814     0.0000
   3862 O           3.4774   30.5843   40.9926 O.3   3815  HOH3815     0.0000
   3863 O          70.0936   18.7398   30.5843 O.3   3816  HOH3816     0.0000
   3864 O          40.9926   63.1743   36.0675 O.3   3817  HOH3817     0.0000
   3865 O          25.6591   47.9119   80.5020 O.3   3818  HOH3818     0.0000
   3866 O          85.4271    3.4774   75.0188 O.3   3819  HOH3819     0.0000
   3867 O          47.8764    8.3670   70.1292 O.3   3820  HOH3820     0.0000
   3868 O          18.7754   13.8502   25.6947 O.3   3821  HOH3821     0.0000
   3869 O           3.4419   58.2847   40.9571 O.3   3822  HOH3822     0.0000
   3870 O          63.2098   52.8015   85.3915 O.3   3823  HOH3823     0.0000
   3871 O          52.8015   40.9571   18.7754 O.3   3824  HOH3824     0.0000
   3872 O          58.2847   85.3915   47.8764 O.3   3825  HOH3825     0.0000
   3873 O          13.8502   70.1292   63.2098 O.3   3826  HOH3826     0.0000
   3874 O           8.3670   25.6947    3.4419 O.3   3827  HOH3827     0.0000
   3875 O          85.3915    3.4419   13.8502 O.3   3828  HOH3828     0.0000
   3876 O          40.9571   63.2098    8.3670 O.3   3829  HOH3829     0.0000
   3877 O          25.6947   47.8764   52.8015 O.3   3830  HOH3830     0.0000
   3878 O          70.1292   18.7754   58.2847 O.3   3831  HOH3831     0.0000
   3879 O          13.8502   18.7754   25.6947 O.3   3832  HOH3832     0.0000
   3880 O           8.3670   47.8764   70.1292 O.3   3833  HOH3833     0.0000
   3881 O          52.8015   63.2098   85.3915 O.3   3834  HOH3834     0.0000
   3882 O          58.2847    3.4419   40.9571 O.3   3835  HOH3835     0.0000
   3883 O          70.1292   13.8502   63.2098 O.3   3836  HOH3836     0.0000
   3884 O          25.6947    8.3670    3.4419 O.3   3837  HOH3837     0.0000
   3885 O          40.9571   52.8015   18.7754 O.3   3838  HOH3838     0.0000
   3886 O          85.3915   58.2847   47.8764 O.3   3839  HOH3839     0.0000
   3887 O          18.7754   70.1292   58.2847 O.3   3840  HOH3840     0.0000
   3888 O          47.8764   25.6947   52.8015 O.3   3841  HOH3841     0.0000
   3889 O          63.2098   40.9571    8.3670 O.3   3842  HOH3842     0.0000
   3890 O           3.4419   85.3915   13.8502 O.3   3843  HOH3843     0.0000
   3891 O          40.9926   80.5020   18.7398 O.3   3844  HOH3844     0.0000
   3892 O          70.0936   75.0188   63.1743 O.3   3845  HOH3845     0.0000
   3893 O          85.4271   30.5843   47.9119 O.3   3846  HOH3846     0.0000
   3894 O          25.6591   36.0675    3.4774 O.3   3847  HOH3847     0.0000
   3895 O          36.0675   47.9119   70.0936 O.3   3848  HOH3848     0.0000
   3896 O          30.5843    3.4774   40.9926 O.3   3849  HOH3849     0.0000
   3897 O          75.0188   18.7398   25.6591 O.3   3850  HOH3850     0.0000
   3898 O          80.5020   63.1743   85.4271 O.3   3851  HOH3851     0.0000
   3899 O           3.4774   85.4271   75.0188 O.3   3852  HOH3852     0.0000
   3900 O          47.9119   25.6591   80.5020 O.3   3853  HOH3853     0.0000
   3901 O          63.1743   40.9926   36.0675 O.3   3854  HOH3854     0.0000
   3902 O          18.7398   70.0936   30.5843 O.3   3855  HOH3855     0.0000
   3903 O          42.7522    3.8729   23.8995 O.3   3856  HOH3856     0.0000
   3904 O          87.1867   62.7788   87.1867 O.3   3857  HOH3857     0.0000
   3905 O          68.3340   48.3074   42.7522 O.3   3858  HOH3858     0.0000
   3906 O          68.3340   23.8995   18.3443 O.3   3859  HOH3859     0.0000
   3907 O          23.8995   42.7522    3.8729 O.3   3860  HOH3860     0.0000
   3908 O          87.1867   87.1867   62.7788 O.3   3861  HOH3861     0.0000
   3909 O          42.7522   68.3340   48.3074 O.3   3862  HOH3862     0.0000
   3910 O          18.3443   68.3340   23.8995 O.3   3863  HOH3863     0.0000
   3911 O           3.8729   23.8995   42.7522 O.3   3864  HOH3864     0.0000
   3912 O          62.7788   87.1867   87.1867 O.3   3865  HOH3865     0.0000
   3913 O          48.3074   42.7522   68.3340 O.3   3866  HOH3866     0.0000
   3914 O          84.9961   46.1168   64.9695 O.3   3867  HOH3867     0.0000
   3915 O          70.5247   64.9695   20.5350 O.3   3868  HOH3868     0.0000
   3916 O          40.5616   20.5350   46.1168 O.3   3869  HOH3869     0.0000
   3917 O          26.0902    1.6823    1.6823 O.3   3870  HOH3870     0.0000
   3918 O           1.6823    1.6823   26.0902 O.3   3871  HOH3871     0.0000
   3919 O          20.5350   46.1168   40.5616 O.3   3872  HOH3872     0.0000
   3920 O          64.9695   20.5350   70.5247 O.3   3873  HOH3873     0.0000
   3921 O          46.1168   64.9695   84.9961 O.3   3874  HOH3874     0.0000
   3922 O          46.1168   40.5616   20.5350 O.3   3875  HOH3875     0.0000
   3923 O           1.6823   26.0902    1.6823 O.3   3876  HOH3876     0.0000
   3924 O          64.9695   84.9961   46.1168 O.3   3877  HOH3877     0.0000
   3925 O          20.5350   70.5247   64.9695 O.3   3878  HOH3878     0.0000
   3926 O          64.9695   70.5247   20.5350 O.3   3879  HOH3879     0.0000
   3927 O          46.1168   84.9961   64.9695 O.3   3880  HOH3880     0.0000
   3928 O          20.5350   40.5616   46.1168 O.3   3881  HOH3881     0.0000
   3929 O          20.5350   64.9695   70.5247 O.3   3882  HOH3882     0.0000
   3930 O          64.9695   46.1168   84.9961 O.3   3883  HOH3883     0.0000
   3931 O          46.1168   20.5350   40.5616 O.3   3884  HOH3884     0.0000
   3932 O          70.5247   20.5350   64.9695 O.3   3885  HOH3885     0.0000
   3933 O          84.9961   64.9695   46.1168 O.3   3886  HOH3886     0.0000
   3934 O          40.5616   46.1168   20.5350 O.3   3887  HOH3887     0.0000
   3935 O           3.8729   42.7522   23.8995 O.3   3888  HOH3888     0.0000
   3936 O          18.3443   23.8995   68.3340 O.3   3889  HOH3889     0.0000
   3937 O          48.3074   68.3340   42.7522 O.3   3890  HOH3890     0.0000
   3938 O          68.3340   42.7522   48.3074 O.3   3891  HOH3891     0.0000
   3939 O          23.8995   68.3340   18.3443 O.3   3892  HOH3892     0.0000
   3940 O          42.7522   23.8995    3.8729 O.3   3893  HOH3893     0.0000
   3941 O          42.7522   48.3074   68.3340 O.3   3894  HOH3894     0.0000
   3942 O          23.8995    3.8729   42.7522 O.3   3895  HOH3895     0.0000
   3943 O          68.3340   18.3443   23.8995 O.3   3896  HOH3896     0.0000
   3944 O          23.8995   62.7788   23.8995 O.3   3897  HOH3897     0.0000
   3945 O          87.1867   18.3443   42.7522 O.3   3898  HOH3898     0.0000
   3946 O          68.3340    3.8729   87.1867 O.3   3899  HOH3899     0.0000
   3947 O          68.3340   68.3340   62.7788 O.3   3900  HOH3900     0.0000
   3948 O          23.8995   87.1867   48.3074 O.3   3901  HOH3901     0.0000
   3949 O          87.1867   42.7522   18.3443 O.3   3902  HOH3902     0.0000
   3950 O           3.8729   68.3340   87.1867 O.3   3903  HOH3903     0.0000
   3951 O          62.7788   42.7522   42.7522 O.3   3904  HOH3904     0.0000
   3952 O          48.3074   87.1867   23.8995 O.3   3905  HOH3905     0.0000
   3953 O          84.9961    1.6823   20.5350 O.3   3906  HOH3906     0.0000
   3954 O          40.5616   64.9695    1.6823 O.3   3907  HOH3907     0.0000
   3955 O          26.0902   46.1168   46.1168 O.3   3908  HOH3908     0.0000
   3956 O           1.6823   46.1168   70.5247 O.3   3909  HOH3909     0.0000
   3957 O          20.5350    1.6823   84.9961 O.3   3910  HOH3910     0.0000
   3958 O          64.9695   64.9695   26.0902 O.3   3911  HOH3911     0.0000
   3959 O           1.6823   70.5247   46.1168 O.3   3912  HOH3912     0.0000
   3960 O          64.9695   40.5616    1.6823 O.3   3913  HOH3913     0.0000
   3961 O          20.5350   26.0902   20.5350 O.3   3914  HOH3914     0.0000
   3962 O          64.9695   26.0902   64.9695 O.3   3915  HOH3915     0.0000
   3963 O          20.5350   84.9961    1.6823 O.3   3916  HOH3916     0.0000
   3964 O          20.5350   20.5350   26.0902 O.3   3917  HOH3917     0.0000
   3965 O          64.9695    1.6823   40.5616 O.3   3918  HOH3918     0.0000
   3966 O          84.9961   20.5350    1.6823 O.3   3919  HOH3919     0.0000
   3967 O          40.5616    1.6823   64.9695 O.3   3920  HOH3920     0.0000
   3968 O           3.8729   87.1867   68.3340 O.3   3921  HOH3921     0.0000
   3969 O          48.3074   23.8995   87.1867 O.3   3922  HOH3922     0.0000
   3970 O          68.3340   87.1867    3.8729 O.3   3923  HOH3923     0.0000
   3971 O          23.8995   23.8995   62.7788 O.3   3924  HOH3924     0.0000
   3972 O          23.8995   48.3074   87.1867 O.3   3925  HOH3925     0.0000
   3973 O          68.3340   62.7788   68.3340 O.3   3926  HOH3926     0.0000
   3974 O          87.1867    3.8729   68.3340 O.3   3927  HOH3927     0.0000
   3975 O          42.7522   62.7788   42.7522 O.3   3928  HOH3928     0.0000
   3976 O          42.7522   87.1867   18.3443 O.3   3929  HOH3929     0.0000
   3977 O          87.1867   68.3340    3.8729 O.3   3930  HOH3930     0.0000
   3978 O          62.7788   68.3340   68.3340 O.3   3931  HOH3931     0.0000
   3979 O          18.3443   87.1867   42.7522 O.3   3932  HOH3932     0.0000
   3980 O          26.0902   64.9695   64.9695 O.3   3933  HOH3933     0.0000
   3981 O          70.5247    1.6823   46.1168 O.3   3934  HOH3934     0.0000
   3982 O          46.1168    1.6823   70.5247 O.3   3935  HOH3935     0.0000
   3983 O           1.6823   64.9695   40.5616 O.3   3936  HOH3936     0.0000
   3984 O           1.6823   40.5616   64.9695 O.3   3937  HOH3937     0.0000
   3985 O          46.1168   26.0902   46.1168 O.3   3938  HOH3938     0.0000
   3986 O           1.6823   84.9961   20.5350 O.3   3939  HOH3939     0.0000
   3987 O           1.6823   20.5350   84.9961 O.3   3940  HOH3940     0.0000
   3988 O          26.0902   20.5350   20.5350 O.3   3941  HOH3941     0.0000
   3989 O          62.7788   23.8995   23.8995 O.3   3942  HOH3942     0.0000
   3990 O          87.1867   23.8995   48.3074 O.3   3943  HOH3943     0.0000
   3991 O          87.1867   48.3074   23.8995 O.3   3944  HOH3944     0.0000
   3992 O          42.7522   18.3443   87.1867 O.3   3945  HOH3945     0.0000
   3993 O          42.7522   42.7522   62.7788 O.3   3946  HOH3946     0.0000
   3994 O          18.3443   42.7522   87.1867 O.3   3947  HOH3947     0.0000
   3995 O          70.5247   46.1168    1.6823 O.3   3948  HOH3948     0.0000
   3996 O          46.1168   46.1168   26.0902 O.3   3949  HOH3949     0.0000
   3997 O          46.1168   70.5247    1.6823 O.3   3950  HOH3950     0.0000
   3998 O          52.9935   79.8301   35.3956 O.3   3951  HOH3951     0.0000
   3999 O           8.5590   75.6906   75.6906 O.3   3952  HOH3952     0.0000
   4000 O          58.0928   35.3956   31.2561 O.3   3953  HOH3953     0.0000
   4001 O          79.8301   13.6583   31.2561 O.3   3954  HOH3954     0.0000
   4002 O          35.3956   52.9935   79.8301 O.3   3955  HOH3955     0.0000
   4003 O          75.6906    8.5590   75.6906 O.3   3956  HOH3956     0.0000
   4004 O          31.2561   58.0928   35.3956 O.3   3957  HOH3957     0.0000
   4005 O          31.2561   79.8301   13.6583 O.3   3958  HOH3958     0.0000
   4006 O          79.8301   35.3956   52.9935 O.3   3959  HOH3959     0.0000
   4007 O          75.6906   75.6906    8.5590 O.3   3960  HOH3960     0.0000
   4008 O          35.3956   31.2561   58.0928 O.3   3961  HOH3961     0.0000
   4009 O           9.0389   35.8755   53.4734 O.3   3962  HOH3962     0.0000
   4010 O          57.6129   75.2107    9.0389 O.3   3963  HOH3963     0.0000
   4011 O          53.4734   30.7762   57.6129 O.3   3964  HOH3964     0.0000
   4012 O          13.1784   80.3100   13.1784 O.3   3965  HOH3965     0.0000
   4013 O          80.3100   13.1784   13.1784 O.3   3966  HOH3966     0.0000
   4014 O          30.7762   57.6129   53.4734 O.3   3967  HOH3967     0.0000
   4015 O          75.2107    9.0389   57.6129 O.3   3968  HOH3968     0.0000
   4016 O          35.8755   53.4734    9.0389 O.3   3969  HOH3969     0.0000
   4017 O          57.6129   53.4734   30.7762 O.3   3970  HOH3970     0.0000
   4018 O          13.1784   13.1784   80.3100 O.3   3971  HOH3971     0.0000
   4019 O          53.4734    9.0389   35.8755 O.3   3972  HOH3972     0.0000
   4020 O           9.0389   57.6129   75.2107 O.3   3973  HOH3973     0.0000
   4021 O          75.2107   57.6129    9.0389 O.3   3974  HOH3974     0.0000
   4022 O          35.8755    9.0389   53.4734 O.3   3975  HOH3975     0.0000
   4023 O          30.7762   53.4734   57.6129 O.3   3976  HOH3976     0.0000
   4024 O           9.0389   75.2107   57.6129 O.3   3977  HOH3977     0.0000
   4025 O          53.4734   35.8755    9.0389 O.3   3978  HOH3978     0.0000
   4026 O          57.6129   30.7762   53.4734 O.3   3979  HOH3979     0.0000
   4027 O          57.6129    9.0389   75.2107 O.3   3980  HOH3980     0.0000
   4028 O           9.0389   53.4734   35.8755 O.3   3981  HOH3981     0.0000
   4029 O          53.4734   57.6129   30.7762 O.3   3982  HOH3982     0.0000
   4030 O          79.8301   52.9935   35.3956 O.3   3983  HOH3983     0.0000
   4031 O          31.2561   13.6583   79.8301 O.3   3984  HOH3984     0.0000
   4032 O          35.3956   58.0928   31.2561 O.3   3985  HOH3985     0.0000
   4033 O          58.0928   31.2561   35.3956 O.3   3986  HOH3986     0.0000
   4034 O          13.6583   79.8301   31.2561 O.3   3987  HOH3987     0.0000
   4035 O          52.9935   35.3956   79.8301 O.3   3988  HOH3988     0.0000
   4036 O          31.2561   35.3956   58.0928 O.3   3989  HOH3989     0.0000
   4037 O          35.3956   79.8301   52.9935 O.3   3990  HOH3990     0.0000
   4038 O          79.8301   31.2561   13.6583 O.3   3991  HOH3991     0.0000
   4039 O          13.6583   75.6906   35.3956 O.3   3992  HOH3992     0.0000
   4040 O           8.5590   31.2561   31.2561 O.3   3993  HOH3993     0.0000
   4041 O          58.0928   79.8301   75.6906 O.3   3994  HOH3994     0.0000
   4042 O          79.8301   58.0928   75.6906 O.3   3995  HOH3995     0.0000
   4043 O          35.3956    8.5590   35.3956 O.3   3996  HOH3996     0.0000
   4044 O          75.6906   52.9935   31.2561 O.3   3997  HOH3997     0.0000
   4045 O          79.8301   79.8301    8.5590 O.3   3998  HOH3998     0.0000
   4046 O          75.6906   31.2561   52.9935 O.3   3999  HOH3999     0.0000
   4047 O          35.3956   75.6906   13.6583 O.3   4000  HOH4000     0.0000
   4048 O           9.0389   80.3100    9.0389 O.3   4001  HOH4001     0.0000
   4049 O          53.4734   75.2107   13.1784 O.3   4002  HOH4002     0.0000
   4050 O          13.1784   35.8755   57.6129 O.3   4003  HOH4003     0.0000
   4051 O          80.3100   57.6129   57.6129 O.3   4004  HOH4004     0.0000
   4052 O          30.7762   13.1784    9.0389 O.3   4005  HOH4005     0.0000
   4053 O          75.2107   53.4734   13.1784 O.3   4006  HOH4006     0.0000
   4054 O          13.1784   57.6129   35.8755 O.3   4007  HOH4007     0.0000
   4055 O          53.4734   53.4734   80.3100 O.3   4008  HOH4008     0.0000
   4056 O           9.0389   13.1784   30.7762 O.3   4009  HOH4009     0.0000
   4057 O          75.2107   13.1784   53.4734 O.3   4010  HOH4010     0.0000
   4058 O          30.7762    9.0389   13.1784 O.3   4011  HOH4011     0.0000
   4059 O           9.0389   30.7762   13.1784 O.3   4012  HOH4012     0.0000
   4060 O          53.4734   80.3100   53.4734 O.3   4013  HOH4013     0.0000
   4061 O           9.0389    9.0389   80.3100 O.3   4014  HOH4014     0.0000
   4062 O          53.4734   13.1784   75.2107 O.3   4015  HOH4015     0.0000
   4063 O          79.8301    8.5590   79.8301 O.3   4016  HOH4016     0.0000
   4064 O          35.3956   13.6583   75.6906 O.3   4017  HOH4017     0.0000
   4065 O          58.0928   75.6906   79.8301 O.3   4018  HOH4018     0.0000
   4066 O          13.6583   35.3956   75.6906 O.3   4019  HOH4019     0.0000
   4067 O          35.3956   35.3956    8.5590 O.3   4020  HOH4020     0.0000
   4068 O          79.8301   75.6906   58.0928 O.3   4021  HOH4021     0.0000
   4069 O           8.5590   79.8301   79.8301 O.3   4022  HOH4022     0.0000
   4070 O          52.9935   75.6906   31.2561 O.3   4023  HOH4023     0.0000
   4071 O          31.2561    8.5590   31.2561 O.3   4024  HOH4024     0.0000
   4072 O          75.6906   58.0928   79.8301 O.3   4025  HOH4025     0.0000
   4073 O          75.6906   79.8301   58.0928 O.3   4026  HOH4026     0.0000
   4074 O          31.2561   75.6906   52.9935 O.3   4027  HOH4027     0.0000
   4075 O          13.1784   75.2107   53.4734 O.3   4028  HOH4028     0.0000
   4076 O          57.6129   80.3100   57.6129 O.3   4029  HOH4029     0.0000
   4077 O          35.8755   13.1784   57.6129 O.3   4030  HOH4030     0.0000
   4078 O          80.3100   53.4734   53.4734 O.3   4031  HOH4031     0.0000
   4079 O          13.1784   53.4734   75.2107 O.3   4032  HOH4032     0.0000
   4080 O          57.6129   13.1784   35.8755 O.3   4033  HOH4033     0.0000
   4081 O          80.3100    9.0389    9.0389 O.3   4034  HOH4034     0.0000
   4082 O          13.1784   30.7762    9.0389 O.3   4035  HOH4035     0.0000
   4083 O          13.1784    9.0389   30.7762 O.3   4036  HOH4036     0.0000
   4084 O          75.6906   13.6583   35.3956 O.3   4037  HOH4037     0.0000
   4085 O           8.5590   35.3956   35.3956 O.3   4038  HOH4038     0.0000
   4086 O          75.6906   35.3956   13.6583 O.3   4039  HOH4039     0.0000
   4087 O          52.9935   31.2561   75.6906 O.3   4040  HOH4040     0.0000
   4088 O          31.2561   52.9935   75.6906 O.3   4041  HOH4041     0.0000
   4089 O          31.2561   31.2561    8.5590 O.3   4042  HOH4042     0.0000
   4090 O          57.6129   35.8755   13.1784 O.3   4043  HOH4043     0.0000
   4091 O          35.8755   57.6129   13.1784 O.3   4044  HOH4044     0.0000
   4092 O          57.6129   57.6129   80.3100 O.3   4045  HOH4045     0.0000
   4093 O          55.5431   81.5489   11.1086 O.3   4046  HOH4046     0.0000
   4094 O          11.1086   73.9719   11.1086 O.3   4047  HOH4047     0.0000
   4095 O          55.5431   37.1144   55.5431 O.3   4048  HOH4048     0.0000
   4096 O          55.5431   11.1086   29.5374 O.3   4049  HOH4049     0.0000
   4097 O          11.1086   55.5431   81.5489 O.3   4050  HOH4050     0.0000
   4098 O          11.1086   11.1086   73.9719 O.3   4051  HOH4051     0.0000
   4099 O          55.5431   55.5431   37.1144 O.3   4052  HOH4052     0.0000
   4100 O          29.5374   55.5431   11.1086 O.3   4053  HOH4053     0.0000
   4101 O          81.5489   11.1086   55.5431 O.3   4054  HOH4054     0.0000
   4102 O          73.9719   11.1086   11.1086 O.3   4055  HOH4055     0.0000
   4103 O          37.1144   55.5431   55.5431 O.3   4056  HOH4056     0.0000
   4104 O           7.3201   33.3259   77.7604 O.3   4057  HOH4057     0.0000
   4105 O          59.3316   77.7604   33.3259 O.3   4058  HOH4058     0.0000
   4106 O          51.7546   33.3259   33.3259 O.3   4059  HOH4059     0.0000
   4107 O          14.8971   77.7604   77.7604 O.3   4060  HOH4060     0.0000
   4108 O          77.7604   77.7604   14.8971 O.3   4061  HOH4061     0.0000
   4109 O          33.3259   33.3259   51.7546 O.3   4062  HOH4062     0.0000
   4110 O          77.7604   33.3259   59.3316 O.3   4063  HOH4063     0.0000
   4111 O          33.3259   77.7604    7.3201 O.3   4064  HOH4064     0.0000
   4112 O          33.3259   51.7546   33.3259 O.3   4065  HOH4065     0.0000
   4113 O          77.7604   14.8971   77.7604 O.3   4066  HOH4066     0.0000
   4114 O          77.7604    7.3201   33.3259 O.3   4067  HOH4067     0.0000
   4115 O          33.3259   59.3316   77.7604 O.3   4068  HOH4068     0.0000
   4116 O          77.7604   59.3316   33.3259 O.3   4069  HOH4069     0.0000
   4117 O          33.3259    7.3201   77.7604 O.3   4070  HOH4070     0.0000
   4118 O          33.3259   77.7604   59.3316 O.3   4071  HOH4071     0.0000
   4119 O          77.7604   33.3259    7.3201 O.3   4072  HOH4072     0.0000
   4120 O          59.3316   33.3259   77.7604 O.3   4073  HOH4073     0.0000
   4121 O           7.3201   77.7604   33.3259 O.3   4074  HOH4074     0.0000
   4122 O          81.5489   55.5431   11.1086 O.3   4075  HOH4075     0.0000
   4123 O          29.5374   11.1086   55.5431 O.3   4076  HOH4076     0.0000
   4124 O          11.1086   55.5431   29.5374 O.3   4077  HOH4077     0.0000
   4125 O          55.5431   11.1086   81.5489 O.3   4078  HOH4078     0.0000
   4126 O          11.1086   81.5489   55.5431 O.3   4079  HOH4079     0.0000
   4127 O          55.5431   29.5374   11.1086 O.3   4080  HOH4080     0.0000
   4128 O          55.5431   55.5431   73.9719 O.3   4081  HOH4081     0.0000
   4129 O          11.1086   11.1086   37.1144 O.3   4082  HOH4082     0.0000
   4130 O          73.9719   55.5431   55.5431 O.3   4083  HOH4083     0.0000
   4131 O          37.1144   11.1086   11.1086 O.3   4084  HOH4084     0.0000
   4132 O          51.7546   77.7604   77.7604 O.3   4085  HOH4085     0.0000
   4133 O          14.8971   33.3259   33.3259 O.3   4086  HOH4086     0.0000
   4134 O          77.7604   51.7546   77.7604 O.3   4087  HOH4087     0.0000
   4135 O          33.3259   14.8971   33.3259 O.3   4088  HOH4088     0.0000
   4136 O          33.3259   33.3259   14.8971 O.3   4089  HOH4089     0.0000
   4137 O          77.7604   77.7604   51.7546 O.3   4090  HOH4090     0.0000
   4138 O          11.1086   37.1144   11.1086 O.3   4091  HOH4091     0.0000
   4139 O          55.5431   73.9719   55.5431 O.3   4092  HOH4092     0.0000
   4140 O          55.5227   77.7808    0.0000 O.3   4093  HOH4093     0.0000
   4141 O          11.0882   77.7399   22.2172 O.3   4094  HOH4094     0.0000
   4142 O          55.5636   33.3463   66.6517 O.3   4095  HOH4095     0.0000
   4143 O          44.4345   11.1291   33.3054 O.3   4096  HOH4096     0.0000
   4144 O           0.0000   55.5227   77.7808 O.3   4097  HOH4097     0.0000
   4145 O          22.2172   11.0882   77.7399 O.3   4098  HOH4098     0.0000
   4146 O          66.6517   55.5636   33.3463 O.3   4099  HOH4099     0.0000
   4147 O          33.3054   44.4345   11.1291 O.3   4100  HOH4100     0.0000
   4148 O          77.7808    0.0000   55.5227 O.3   4101  HOH4101     0.0000
   4149 O          77.7399   22.2172   11.0882 O.3   4102  HOH4102     0.0000
   4150 O          33.3463   66.6517   55.5636 O.3   4103  HOH4103     0.0000
   4151 O          11.0882   33.3463    0.0000 O.3   4104  HOH4104     0.0000
   4152 O          55.5636   77.7399   44.4345 O.3   4105  HOH4105     0.0000
   4153 O          55.5227   33.3054   22.2172 O.3   4106  HOH4106     0.0000
   4154 O          11.1291   77.7808   66.6517 O.3   4107  HOH4107     0.0000
   4155 O          77.7808   66.6517   11.1291 O.3   4108  HOH4108     0.0000
   4156 O          33.3054   22.2172   55.5227 O.3   4109  HOH4109     0.0000
   4157 O          77.7399   44.4345   55.5636 O.3   4110  HOH4110     0.0000
   4158 O          33.3463    0.0000   11.0882 O.3   4111  HOH4111     0.0000
   4159 O          22.2172   55.5227   33.3054 O.3   4112  HOH4112     0.0000
   4160 O          66.6517   11.1291   77.7808 O.3   4113  HOH4113     0.0000
   4161 O           0.0000   11.0882   33.3463 O.3   4114  HOH4114     0.0000
   4162 O          44.4345   55.5636   77.7399 O.3   4115  HOH4115     0.0000
   4163 O          77.7399   55.5636   44.4345 O.3   4116  HOH4116     0.0000
   4164 O          33.3463   11.0882    0.0000 O.3   4117  HOH4117     0.0000
   4165 O          77.7808   11.1291   66.6517 O.3   4118  HOH4118     0.0000
   4166 O          33.3054   55.5227   22.2172 O.3   4119  HOH4119     0.0000
   4167 O          44.4345   77.7399   55.5636 O.3   4120  HOH4120     0.0000
   4168 O           0.0000   33.3463   11.0882 O.3   4121  HOH4121     0.0000
   4169 O          66.6517   77.7808   11.1291 O.3   4122  HOH4122     0.0000
   4170 O          22.2172   33.3054   55.5227 O.3   4123  HOH4123     0.0000
   4171 O          55.5636   44.4345   77.7399 O.3   4124  HOH4124     0.0000
   4172 O          11.0882    0.0000   33.3463 O.3   4125  HOH4125     0.0000
   4173 O          11.1291   66.6517   77.7808 O.3   4126  HOH4126     0.0000
   4174 O          55.5227   22.2172   33.3054 O.3   4127  HOH4127     0.0000
   4175 O          77.7808   55.5227    0.0000 O.3   4128  HOH4128     0.0000
   4176 O          33.3054   11.1291   44.4345 O.3   4129  HOH4129     0.0000
   4177 O          33.3463   55.5636   66.6517 O.3   4130  HOH4130     0.0000
   4178 O          77.7399   11.0882   22.2172 O.3   4131  HOH4131     0.0000
   4179 O          11.0882   22.2172   77.7399 O.3   4132  HOH4132     0.0000
   4180 O          55.5636   66.6517   33.3463 O.3   4133  HOH4133     0.0000
   4181 O          11.1291   44.4345   33.3054 O.3   4134  HOH4134     0.0000
   4182 O          55.5227    0.0000   77.7808 O.3   4135  HOH4135     0.0000
   4183 O          66.6517   33.3463   55.5636 O.3   4136  HOH4136     0.0000
   4184 O          22.2172   77.7399   11.0882 O.3   4137  HOH4137     0.0000
   4185 O           0.0000   77.7808   55.5227 O.3   4138  HOH4138     0.0000
   4186 O          44.4345   33.3054   11.1291 O.3   4139  HOH4139     0.0000
   4187 O          11.1291   77.7399    0.0000 O.3   4140  HOH4140     0.0000
   4188 O          55.5227   33.3463   44.4345 O.3   4141  HOH4141     0.0000
   4189 O          11.0882   33.3054   66.6517 O.3   4142  HOH4142     0.0000
   4190 O          55.5636   77.7808   22.2172 O.3   4143  HOH4143     0.0000
   4191 O          33.3054    0.0000   55.5636 O.3   4144  HOH4144     0.0000
   4192 O          77.7808   44.4345   11.0882 O.3   4145  HOH4145     0.0000
   4193 O          77.7399   66.6517   55.5227 O.3   4146  HOH4146     0.0000
   4194 O          33.3463   22.2172   11.1291 O.3   4147  HOH4147     0.0000
   4195 O          11.0882   77.7808   44.4345 O.3   4148  HOH4148     0.0000
   4196 O          55.5636   33.3054    0.0000 O.3   4149  HOH4149     0.0000
   4197 O          55.5227   77.7399   66.6517 O.3   4150  HOH4150     0.0000
   4198 O          11.1291   33.3463   22.2172 O.3   4151  HOH4151     0.0000
   4199 O          77.7808   22.2172   55.5636 O.3   4152  HOH4152     0.0000
   4200 O          33.3054   66.6517   11.0882 O.3   4153  HOH4153     0.0000
   4201 O          77.7399    0.0000   11.1291 O.3   4154  HOH4154     0.0000
   4202 O          33.3463   44.4345   55.5227 O.3   4155  HOH4155     0.0000
   4203 O          77.7399   11.1291    0.0000 O.3   4156  HOH4156     0.0000
   4204 O          33.3463   55.5227   44.4345 O.3   4157  HOH4157     0.0000
   4205 O          77.7808   55.5636   22.2172 O.3   4158  HOH4158     0.0000
   4206 O          33.3054   11.0882   66.6517 O.3   4159  HOH4159     0.0000
   4207 O          55.5636    0.0000   33.3054 O.3   4160  HOH4160     0.0000
   4208 O          11.0882   44.4345   77.7808 O.3   4161  HOH4161     0.0000
   4209 O          11.1291   22.2172   33.3463 O.3   4162  HOH4162     0.0000
   4210 O          55.5227   66.6517   77.7399 O.3   4163  HOH4163     0.0000
   4211 O          77.7808   11.0882   44.4345 O.3   4164  HOH4164     0.0000
   4212 O          33.3054   55.5636    0.0000 O.3   4165  HOH4165     0.0000
   4213 O          33.3463   11.1291   22.2172 O.3   4166  HOH4166     0.0000
   4214 O          77.7399   55.5227   66.6517 O.3   4167  HOH4167     0.0000
   4215 O          11.0882   66.6517   33.3054 O.3   4168  HOH4168     0.0000
   4216 O          55.5636   22.2172   77.7808 O.3   4169  HOH4169     0.0000
   4217 O          11.1291    0.0000   77.7399 O.3   4170  HOH4170     0.0000
   4218 O          55.5227   44.4345   33.3463 O.3   4171  HOH4171     0.0000
   4219 O           0.0000   11.1291   77.7399 O.3   4172  HOH4172     0.0000
   4220 O          44.4345   55.5227   33.3463 O.3   4173  HOH4173     0.0000
   4221 O          66.6517   11.0882   33.3054 O.3   4174  HOH4174     0.0000
   4222 O          22.2172   55.5636   77.7808 O.3   4175  HOH4175     0.0000
   4223 O          66.6517   55.5227   77.7399 O.3   4176  HOH4176     0.0000
   4224 O          22.2172   11.1291   33.3463 O.3   4177  HOH4177     0.0000
   4225 O          44.4345   11.0882   77.7808 O.3   4178  HOH4178     0.0000
   4226 O           0.0000   55.5636   33.3054 O.3   4179  HOH4179     0.0000
   4227 O           0.0000   77.7399   11.1291 O.3   4180  HOH4180     0.0000
   4228 O          44.4345   33.3463   55.5227 O.3   4181  HOH4181     0.0000
   4229 O          22.2172   77.7808   55.5636 O.3   4182  HOH4182     0.0000
   4230 O          66.6517   33.3054   11.0882 O.3   4183  HOH4183     0.0000
   4231 O          22.2172   33.3463   11.1291 O.3   4184  HOH4184     0.0000
   4232 O          66.6517   77.7399   55.5227 O.3   4185  HOH4185     0.0000
   4233 O          44.4345   77.7808   11.0882 O.3   4186  HOH4186     0.0000
   4234 O           0.0000   33.3054   55.5636 O.3   4187  HOH4187     0.0000
   4235 O          58.2803   26.8829    2.2448 O.3   4188  HOH4188     0.0000
   4236 O          13.8458   39.7689   19.9724 O.3   4189  HOH4189     0.0000
   4237 O          52.8060   71.3174   64.4069 O.3   4190  HOH4190     0.0000
   4238 O          46.6793    8.3715   84.2034 O.3   4191  HOH4191     0.0000
   4239 O           2.2448   58.2803   26.8829 O.3   4192  HOH4192     0.0000
   4240 O          19.9724   13.8458   39.7689 O.3   4193  HOH4193     0.0000
   4241 O          64.4069   52.8060   71.3174 O.3   4194  HOH4194     0.0000
   4242 O          84.2034   46.6793    8.3715 O.3   4195  HOH4195     0.0000
   4243 O          26.8829    2.2448   58.2803 O.3   4196  HOH4196     0.0000
   4244 O          39.7689   19.9724   13.8458 O.3   4197  HOH4197     0.0000
   4245 O          71.3174   64.4069   52.8060 O.3   4198  HOH4198     0.0000
   4246 O          61.9861   30.5887   86.6242 O.3   4199  HOH4199     0.0000
   4247 O           4.6656   80.4975   42.1897 O.3   4200  HOH4200     0.0000
   4248 O          17.5516   36.0630   24.4621 O.3   4201  HOH4201     0.0000
   4249 O          49.1001   75.0232   68.8966 O.3   4202  HOH4202     0.0000
   4250 O          75.0232   68.8966   49.1001 O.3   4203  HOH4203     0.0000
   4251 O          36.0630   24.4621   17.5516 O.3   4204  HOH4204     0.0000
   4252 O          80.4975   42.1897    4.6656 O.3   4205  HOH4205     0.0000
   4253 O          30.5887   86.6242   61.9861 O.3   4206  HOH4206     0.0000
   4254 O          24.4621   17.5516   36.0630 O.3   4207  HOH4207     0.0000
   4255 O          68.8966   49.1001   75.0232 O.3   4208  HOH4208     0.0000
   4256 O          86.6242   61.9861   30.5887 O.3   4209  HOH4209     0.0000
   4257 O          42.1897    4.6656   80.4975 O.3   4210  HOH4210     0.0000
   4258 O          80.4975    4.6656   42.1897 O.3   4211  HOH4211     0.0000
   4259 O          30.5887   61.9861   86.6242 O.3   4212  HOH4212     0.0000
   4260 O          75.0232   49.1001   68.8966 O.3   4213  HOH4213     0.0000
   4261 O          36.0630   17.5516   24.4621 O.3   4214  HOH4214     0.0000
   4262 O          42.1897   80.4975    4.6656 O.3   4215  HOH4215     0.0000
   4263 O          86.6242   30.5887   61.9861 O.3   4216  HOH4216     0.0000
   4264 O          68.8966   75.0232   49.1001 O.3   4217  HOH4217     0.0000
   4265 O          24.4621   36.0630   17.5516 O.3   4218  HOH4218     0.0000
   4266 O           4.6656   42.1897   80.4975 O.3   4219  HOH4219     0.0000
   4267 O          61.9861   86.6242   30.5887 O.3   4220  HOH4220     0.0000
   4268 O          49.1001   68.8966   75.0232 O.3   4221  HOH4221     0.0000
   4269 O          17.5516   24.4621   36.0630 O.3   4222  HOH4222     0.0000
   4270 O          26.8829   58.2803    2.2448 O.3   4223  HOH4223     0.0000
   4271 O          84.2034    8.3715   46.6793 O.3   4224  HOH4224     0.0000
   4272 O          71.3174   52.8060   64.4069 O.3   4225  HOH4225     0.0000
   4273 O          39.7689   13.8458   19.9724 O.3   4226  HOH4226     0.0000
   4274 O          13.8458   19.9724   39.7689 O.3   4227  HOH4227     0.0000
   4275 O          52.8060   64.4069   71.3174 O.3   4228  HOH4228     0.0000
   4276 O           8.3715   46.6793   84.2034 O.3   4229  HOH4229     0.0000
   4277 O          58.2803    2.2448   26.8829 O.3   4230  HOH4230     0.0000
   4278 O          64.4069   71.3174   52.8060 O.3   4231  HOH4231     0.0000
   4279 O          19.9724   39.7689   13.8458 O.3   4232  HOH4232     0.0000
   4280 O           2.2448   26.8829   58.2803 O.3   4233  HOH4233     0.0000
   4281 O          46.6793   84.2034    8.3715 O.3   4234  HOH4234     0.0000
   4282 O           8.3715   39.7689    2.2448 O.3   4235  HOH4235     0.0000
   4283 O          58.2803   71.3174   46.6793 O.3   4236  HOH4236     0.0000
   4284 O          13.8458   84.2034   64.4069 O.3   4237  HOH4237     0.0000
   4285 O          52.8060   26.8829   19.9724 O.3   4238  HOH4238     0.0000
   4286 O          46.6793   52.8060   39.7689 O.3   4239  HOH4239     0.0000
   4287 O           2.2448   13.8458   71.3174 O.3   4240  HOH4240     0.0000
   4288 O          19.9724   58.2803   84.2034 O.3   4241  HOH4241     0.0000
   4289 O          64.4069    8.3715   26.8829 O.3   4242  HOH4242     0.0000
   4290 O          84.2034    2.2448   52.8060 O.3   4243  HOH4243     0.0000
   4291 O          26.8829   46.6793   13.8458 O.3   4244  HOH4244     0.0000
   4292 O          39.7689   64.4069   58.2803 O.3   4245  HOH4245     0.0000
   4293 O          71.3174   19.9724    8.3715 O.3   4246  HOH4246     0.0000
   4294 O          61.9861   75.0232   42.1897 O.3   4247  HOH4247     0.0000
   4295 O           4.6656   36.0630   86.6242 O.3   4248  HOH4248     0.0000
   4296 O          17.5516   80.4975   68.8966 O.3   4249  HOH4249     0.0000
   4297 O          49.1001   30.5887   24.4621 O.3   4250  HOH4250     0.0000
   4298 O          75.0232   24.4621    4.6656 O.3   4251  HOH4251     0.0000
   4299 O          36.0630   68.8966   61.9861 O.3   4252  HOH4252     0.0000
   4300 O          80.4975   86.6242   49.1001 O.3   4253  HOH4253     0.0000
   4301 O          30.5887   42.1897   17.5516 O.3   4254  HOH4254     0.0000
   4302 O          24.4621   61.9861   80.4975 O.3   4255  HOH4255     0.0000
   4303 O          68.8966    4.6656   30.5887 O.3   4256  HOH4256     0.0000
   4304 O          86.6242   17.5516   75.0232 O.3   4257  HOH4257     0.0000
   4305 O          42.1897   49.1001   36.0630 O.3   4258  HOH4258     0.0000
   4306 O          80.4975   49.1001   86.6242 O.3   4259  HOH4259     0.0000
   4307 O          30.5887   17.5516   42.1897 O.3   4260  HOH4260     0.0000
   4308 O          75.0232    4.6656   24.4621 O.3   4261  HOH4261     0.0000
   4309 O          36.0630   61.9861   68.8966 O.3   4262  HOH4262     0.0000
   4310 O          42.1897   36.0630   49.1001 O.3   4263  HOH4263     0.0000
   4311 O          86.6242   75.0232   17.5516 O.3   4264  HOH4264     0.0000
   4312 O          68.8966   30.5887    4.6656 O.3   4265  HOH4265     0.0000
   4313 O          24.4621   80.4975   61.9861 O.3   4266  HOH4266     0.0000
   4314 O           4.6656   86.6242   36.0630 O.3   4267  HOH4267     0.0000
   4315 O          61.9861   42.1897   75.0232 O.3   4268  HOH4268     0.0000
   4316 O          49.1001   24.4621   30.5887 O.3   4269  HOH4269     0.0000
   4317 O          17.5516   68.8966   80.4975 O.3   4270  HOH4270     0.0000
   4318 O          26.8829   13.8458   46.6793 O.3   4271  HOH4271     0.0000
   4319 O          84.2034   52.8060    2.2448 O.3   4272  HOH4272     0.0000
   4320 O          71.3174    8.3715   19.9724 O.3   4273  HOH4273     0.0000
   4321 O          39.7689   58.2803   64.4069 O.3   4274  HOH4274     0.0000
   4322 O          13.8458   64.4069   84.2034 O.3   4275  HOH4275     0.0000
   4323 O          52.8060   19.9724   26.8829 O.3   4276  HOH4276     0.0000
   4324 O           8.3715    2.2448   39.7689 O.3   4277  HOH4277     0.0000
   4325 O          58.2803   46.6793   71.3174 O.3   4278  HOH4278     0.0000
   4326 O          64.4069   26.8829    8.3715 O.3   4279  HOH4279     0.0000
   4327 O          19.9724   84.2034   58.2803 O.3   4280  HOH4280     0.0000
   4328 O           2.2448   71.3174   13.8458 O.3   4281  HOH4281     0.0000
   4329 O          46.6793   39.7689   52.8060 O.3   4282  HOH4282     0.0000
   4330 O          52.8060   84.2034    2.2448 O.3   4283  HOH4283     0.0000
   4331 O          13.8458   26.8829   46.6793 O.3   4284  HOH4284     0.0000
   4332 O          58.2803   39.7689   64.4069 O.3   4285  HOH4285     0.0000
   4333 O           8.3715   71.3174   19.9724 O.3   4286  HOH4286     0.0000
   4334 O           2.2448    8.3715   39.7689 O.3   4287  HOH4287     0.0000
   4335 O          46.6793   58.2803   71.3174 O.3   4288  HOH4288     0.0000
   4336 O          64.4069   13.8458   84.2034 O.3   4289  HOH4289     0.0000
   4337 O          19.9724   52.8060   26.8829 O.3   4290  HOH4290     0.0000
   4338 O          39.7689   46.6793   52.8060 O.3   4291  HOH4291     0.0000
   4339 O          71.3174    2.2448   13.8458 O.3   4292  HOH4292     0.0000
   4340 O          84.2034   19.9724   58.2803 O.3   4293  HOH4293     0.0000
   4341 O          26.8829   64.4069    8.3715 O.3   4294  HOH4294     0.0000
   4342 O          17.5516   30.5887   42.1897 O.3   4295  HOH4295     0.0000
   4343 O          49.1001   80.4975   86.6242 O.3   4296  HOH4296     0.0000
   4344 O          61.9861   36.0630   68.8966 O.3   4297  HOH4297     0.0000
   4345 O           4.6656   75.0232   24.4621 O.3   4298  HOH4298     0.0000
   4346 O          30.5887   68.8966    4.6656 O.3   4299  HOH4299     0.0000
   4347 O          80.4975   24.4621   61.9861 O.3   4300  HOH4300     0.0000
   4348 O          36.0630   42.1897   49.1001 O.3   4301  HOH4301     0.0000
   4349 O          75.0232   86.6242   17.5516 O.3   4302  HOH4302     0.0000
   4350 O          68.8966   17.5516   80.4975 O.3   4303  HOH4303     0.0000
   4351 O          24.4621   49.1001   30.5887 O.3   4304  HOH4304     0.0000
   4352 O          42.1897   61.9861   75.0232 O.3   4305  HOH4305     0.0000
   4353 O          86.6242    4.6656   36.0630 O.3   4306  HOH4306     0.0000
   4354 O          36.0630    4.6656   86.6242 O.3   4307  HOH4307     0.0000
   4355 O          75.0232   61.9861   42.1897 O.3   4308  HOH4308     0.0000
   4356 O          30.5887   49.1001   24.4621 O.3   4309  HOH4309     0.0000
   4357 O          80.4975   17.5516   68.8966 O.3   4310  HOH4310     0.0000
   4358 O          86.6242   80.4975   49.1001 O.3   4311  HOH4311     0.0000
   4359 O          42.1897   30.5887   17.5516 O.3   4312  HOH4312     0.0000
   4360 O          24.4621   75.0232    4.6656 O.3   4313  HOH4313     0.0000
   4361 O          68.8966   36.0630   61.9861 O.3   4314  HOH4314     0.0000
   4362 O          49.1001   42.1897   36.0630 O.3   4315  HOH4315     0.0000
   4363 O          17.5516   86.6242   75.0232 O.3   4316  HOH4316     0.0000
   4364 O           4.6656   68.8966   30.5887 O.3   4317  HOH4317     0.0000
   4365 O          61.9861   24.4621   80.4975 O.3   4318  HOH4318     0.0000
   4366 O          71.3174   58.2803   46.6793 O.3   4319  HOH4319     0.0000
   4367 O          39.7689    8.3715    2.2448 O.3   4320  HOH4320     0.0000
   4368 O          26.8829   52.8060   19.9724 O.3   4321  HOH4321     0.0000
   4369 O          84.2034   13.8458   64.4069 O.3   4322  HOH4322     0.0000
   4370 O          58.2803   19.9724   84.2034 O.3   4323  HOH4323     0.0000
   4371 O           8.3715   64.4069   26.8829 O.3   4324  HOH4324     0.0000
   4372 O          52.8060   46.6793   39.7689 O.3   4325  HOH4325     0.0000
   4373 O          13.8458    2.2448   71.3174 O.3   4326  HOH4326     0.0000
   4374 O          19.9724   71.3174    8.3715 O.3   4327  HOH4327     0.0000
   4375 O          64.4069   39.7689   58.2803 O.3   4328  HOH4328     0.0000
   4376 O          46.6793   26.8829   13.8458 O.3   4329  HOH4329     0.0000
   4377 O           2.2448   84.2034   52.8060 O.3   4330  HOH4330     0.0000
   4378 O          52.8060   39.7689   46.6793 O.3   4331  HOH4331     0.0000
   4379 O          13.8458   71.3174    2.2448 O.3   4332  HOH4332     0.0000
   4380 O          58.2803   84.2034   19.9724 O.3   4333  HOH4333     0.0000
   4381 O           8.3715   26.8829   64.4069 O.3   4334  HOH4334     0.0000
   4382 O           2.2448   52.8060   84.2034 O.3   4335  HOH4335     0.0000
   4383 O          46.6793   13.8458   26.8829 O.3   4336  HOH4336     0.0000
   4384 O          64.4069   58.2803   39.7689 O.3   4337  HOH4337     0.0000
   4385 O          19.9724    8.3715   71.3174 O.3   4338  HOH4338     0.0000
   4386 O          39.7689    2.2448    8.3715 O.3   4339  HOH4339     0.0000
   4387 O          71.3174   46.6793   58.2803 O.3   4340  HOH4340     0.0000
   4388 O          84.2034   64.4069   13.8458 O.3   4341  HOH4341     0.0000
   4389 O          26.8829   19.9724   52.8060 O.3   4342  HOH4342     0.0000
   4390 O          17.5516   75.0232   86.6242 O.3   4343  HOH4343     0.0000
   4391 O          49.1001   36.0630   42.1897 O.3   4344  HOH4344     0.0000
   4392 O          61.9861   80.4975   24.4621 O.3   4345  HOH4345     0.0000
   4393 O           4.6656   30.5887   68.8966 O.3   4346  HOH4346     0.0000
   4394 O          30.5887   24.4621   49.1001 O.3   4347  HOH4347     0.0000
   4395 O          80.4975   68.8966   17.5516 O.3   4348  HOH4348     0.0000
   4396 O          36.0630   86.6242    4.6656 O.3   4349  HOH4349     0.0000
   4397 O          75.0232   42.1897   61.9861 O.3   4350  HOH4350     0.0000
   4398 O          68.8966   61.9861   36.0630 O.3   4351  HOH4351     0.0000
   4399 O          24.4621    4.6656   75.0232 O.3   4352  HOH4352     0.0000
   4400 O          42.1897   17.5516   30.5887 O.3   4353  HOH4353     0.0000
   4401 O          86.6242   49.1001   80.4975 O.3   4354  HOH4354     0.0000
   4402 O          36.0630   49.1001   42.1897 O.3   4355  HOH4355     0.0000
   4403 O          75.0232   17.5516   86.6242 O.3   4356  HOH4356     0.0000
   4404 O          30.5887    4.6656   68.8966 O.3   4357  HOH4357     0.0000
   4405 O          80.4975   61.9861   24.4621 O.3   4358  HOH4358     0.0000
   4406 O          86.6242   36.0630    4.6656 O.3   4359  HOH4359     0.0000
   4407 O          42.1897   75.0232   61.9861 O.3   4360  HOH4360     0.0000
   4408 O          24.4621   30.5887   49.1001 O.3   4361  HOH4361     0.0000
   4409 O          68.8966   80.4975   17.5516 O.3   4362  HOH4362     0.0000
   4410 O          49.1001   86.6242   80.4975 O.3   4363  HOH4363     0.0000
   4411 O          17.5516   42.1897   30.5887 O.3   4364  HOH4364     0.0000
   4412 O           4.6656   24.4621   75.0232 O.3   4365  HOH4365     0.0000
   4413 O          61.9861   68.8966   36.0630 O.3   4366  HOH4366     0.0000
   4414 O          71.3174   13.8458    2.2448 O.3   4367  HOH4367     0.0000
   4415 O          39.7689   52.8060   46.6793 O.3   4368  HOH4368     0.0000
   4416 O          26.8829    8.3715   64.4069 O.3   4369  HOH4369     0.0000
   4417 O          84.2034   58.2803   19.9724 O.3   4370  HOH4370     0.0000
   4418 O          58.2803   64.4069   39.7689 O.3   4371  HOH4371     0.0000
   4419 O           8.3715   19.9724   71.3174 O.3   4372  HOH4372     0.0000
   4420 O          52.8060    2.2448   84.2034 O.3   4373  HOH4373     0.0000
   4421 O          13.8458   46.6793   26.8829 O.3   4374  HOH4374     0.0000
   4422 O          19.9724   26.8829   52.8060 O.3   4375  HOH4375     0.0000
   4423 O          64.4069   84.2034   13.8458 O.3   4376  HOH4376     0.0000
   4424 O          46.6793   71.3174   58.2803 O.3   4377  HOH4377     0.0000
   4425 O           2.2448   39.7689    8.3715 O.3   4378  HOH4378     0.0000
   4426 C          77.3605   31.9297   38.2723 C.3   4379  UNL4379     0.0000
   4427 C          32.9260   34.7220   72.8139 C.3   4380  UNL4380     0.0000
   4428 C          33.7258   76.3642   28.3794 C.3   4381  UNL4381     0.0000
   4429 C          82.7068   78.1603   79.1565 C.3   4382  UNL4382     0.0000
   4430 C          38.2723   77.3605   31.9297 C.3   4383  UNL4383     0.0000
   4431 C          72.8139   32.9260   34.7220 C.3   4384  UNL4384     0.0000
   4432 C          28.3794   33.7258   76.3642 C.3   4385  UNL4385     0.0000
   4433 C          79.1565   82.7068   78.1603 C.3   4386  UNL4386     0.0000
   4434 C          31.9297   38.2723   77.3605 C.3   4387  UNL4387     0.0000
   4435 C          34.7220   72.8139   32.9260 C.3   4388  UNL4388     0.0000
   4436 C          76.3642   28.3794   33.7258 C.3   4389  UNL4389     0.0000
   4437 C          56.9393   11.5085   50.5967 C.3   4390  UNL4390     0.0000
   4438 C           9.7125   10.7087    6.1622 C.3   4391  UNL4391     0.0000
   4439 C          12.5048   55.1432   60.4896 C.3   4392  UNL4392     0.0000
   4440 C          54.1470   55.9430   16.0551 C.3   4393  UNL4393     0.0000
   4441 C          55.9430   16.0551   54.1470 C.3   4394  UNL4394     0.0000
   4442 C          55.1432   60.4896   12.5048 C.3   4395  UNL4395     0.0000
   4443 C          10.7087    6.1622    9.7125 C.3   4396  UNL4396     0.0000
   4444 C          11.5085   50.5967   56.9393 C.3   4397  UNL4397     0.0000
   4445 C          60.4896   12.5048   55.1432 C.3   4398  UNL4398     0.0000
   4446 C          16.0551   54.1470   55.9430 C.3   4399  UNL4399     0.0000
   4447 C          50.5967   56.9393   11.5085 C.3   4400  UNL4400     0.0000
   4448 C           6.1622    9.7125   10.7087 C.3   4401  UNL4401     0.0000
   4449 C          10.7087    9.7125    6.1622 C.3   4402  UNL4402     0.0000
   4450 C          11.5085   56.9393   50.5967 C.3   4403  UNL4403     0.0000
   4451 C          55.9430   54.1470   16.0551 C.3   4404  UNL4404     0.0000
   4452 C          55.1432   12.5048   60.4896 C.3   4405  UNL4405     0.0000
   4453 C           6.1622   10.7087    9.7125 C.3   4406  UNL4406     0.0000
   4454 C          50.5967   11.5085   56.9393 C.3   4407  UNL4407     0.0000
   4455 C          16.0551   55.9430   54.1470 C.3   4408  UNL4408     0.0000
   4456 C          60.4896   55.1432   12.5048 C.3   4409  UNL4409     0.0000
   4457 C           9.7125    6.1622   10.7087 C.3   4410  UNL4410     0.0000
   4458 C          56.9393   50.5967   11.5085 C.3   4411  UNL4411     0.0000
   4459 C          54.1470   16.0551   55.9430 C.3   4412  UNL4412     0.0000
   4460 C          12.5048   60.4896   55.1432 C.3   4413  UNL4413     0.0000
   4461 C          31.9297   77.3605   38.2723 C.3   4414  UNL4414     0.0000
   4462 C          79.1565   78.1603   82.7068 C.3   4415  UNL4415     0.0000
   4463 C          76.3642   33.7258   28.3794 C.3   4416  UNL4416     0.0000
   4464 C          34.7220   32.9260   72.8139 C.3   4417  UNL4417     0.0000
   4465 C          32.9260   72.8139   34.7220 C.3   4418  UNL4418     0.0000
   4466 C          33.7258   28.3794   76.3642 C.3   4419  UNL4419     0.0000
   4467 C          78.1603   82.7068   79.1565 C.3   4420  UNL4420     0.0000
   4468 C          77.3605   38.2723   31.9297 C.3   4421  UNL4421     0.0000
   4469 C          28.3794   76.3642   33.7258 C.3   4422  UNL4422     0.0000
   4470 C          72.8139   34.7220   32.9260 C.3   4423  UNL4423     0.0000
   4471 C          38.2723   31.9297   77.3605 C.3   4424  UNL4424     0.0000
   4472 C          82.7068   79.1565   78.1603 C.3   4425  UNL4425     0.0000
   4473 C          78.1603   34.7220   38.2723 C.3   4426  UNL4426     0.0000
   4474 C          77.3605   76.3642   82.7068 C.3   4427  UNL4427     0.0000
   4475 C          32.9260   79.1565   28.3794 C.3   4428  UNL4428     0.0000
   4476 C          33.7258   31.9297   72.8139 C.3   4429  UNL4429     0.0000
   4477 C          82.7068   33.7258   34.7220 C.3   4430  UNL4430     0.0000
   4478 C          38.2723   32.9260   76.3642 C.3   4431  UNL4431     0.0000
   4479 C          72.8139   77.3605   79.1565 C.3   4432  UNL4432     0.0000
   4480 C          28.3794   78.1603   31.9297 C.3   4433  UNL4433     0.0000
   4481 C          79.1565   38.2723   33.7258 C.3   4434  UNL4434     0.0000
   4482 C          31.9297   82.7068   32.9260 C.3   4435  UNL4435     0.0000
   4483 C          34.7220   28.3794   77.3605 C.3   4436  UNL4436     0.0000
   4484 C          76.3642   72.8139   78.1603 C.3   4437  UNL4437     0.0000
   4485 C          56.9393   55.9430    6.1622 C.3   4438  UNL4438     0.0000
   4486 C           9.7125   55.1432   50.5967 C.3   4439  UNL4439     0.0000
   4487 C          12.5048   10.7087   16.0551 C.3   4440  UNL4440     0.0000
   4488 C          54.1470   11.5085   60.4896 C.3   4441  UNL4441     0.0000
   4489 C          55.9430   60.4896    9.7125 C.3   4442  UNL4442     0.0000
   4490 C          55.1432   16.0551   56.9393 C.3   4443  UNL4443     0.0000
   4491 C          10.7087   50.5967   54.1470 C.3   4444  UNL4444     0.0000
   4492 C          11.5085    6.1622   12.5048 C.3   4445  UNL4445     0.0000
   4493 C          60.4896   56.9393   10.7087 C.3   4446  UNL4446     0.0000
   4494 C          16.0551    9.7125   11.5085 C.3   4447  UNL4447     0.0000
   4495 C          50.5967   12.5048   55.9430 C.3   4448  UNL4448     0.0000
   4496 C           6.1622   54.1470   55.1432 C.3   4449  UNL4449     0.0000
   4497 C          10.7087   54.1470   50.5967 C.3   4450  UNL4450     0.0000
   4498 C          11.5085   12.5048    6.1622 C.3   4451  UNL4451     0.0000
   4499 C          55.9430    9.7125   60.4896 C.3   4452  UNL4452     0.0000
   4500 C          55.1432   56.9393   16.0551 C.3   4453  UNL4453     0.0000
   4501 C           6.1622   55.1432   54.1470 C.3   4454  UNL4454     0.0000
   4502 C          50.5967   55.9430   12.5048 C.3   4455  UNL4455     0.0000
   4503 C          16.0551   11.5085    9.7125 C.3   4456  UNL4456     0.0000
   4504 C          60.4896   10.7087   56.9393 C.3   4457  UNL4457     0.0000
   4505 C           9.7125   50.5967   55.1432 C.3   4458  UNL4458     0.0000
   4506 C          56.9393    6.1622   55.9430 C.3   4459  UNL4459     0.0000
   4507 C          54.1470   60.4896   11.5085 C.3   4460  UNL4460     0.0000
   4508 C          12.5048   16.0551   10.7087 C.3   4461  UNL4461     0.0000
   4509 C          31.9297   32.9260   82.7068 C.3   4462  UNL4462     0.0000
   4510 C          79.1565   33.7258   38.2723 C.3   4463  UNL4463     0.0000
   4511 C          76.3642   78.1603   72.8139 C.3   4464  UNL4464     0.0000
   4512 C          34.7220   77.3605   28.3794 C.3   4465  UNL4465     0.0000
   4513 C          32.9260   28.3794   79.1565 C.3   4466  UNL4466     0.0000
   4514 C          33.7258   72.8139   31.9297 C.3   4467  UNL4467     0.0000
   4515 C          78.1603   38.2723   34.7220 C.3   4468  UNL4468     0.0000
   4516 C          77.3605   82.7068   76.3642 C.3   4469  UNL4469     0.0000
   4517 C          28.3794   31.9297   78.1603 C.3   4470  UNL4470     0.0000
   4518 C          72.8139   79.1565   77.3605 C.3   4471  UNL4471     0.0000
   4519 C          38.2723   76.3642   32.9260 C.3   4472  UNL4472     0.0000
   4520 C          82.7068   34.7220   33.7258 C.3   4473  UNL4473     0.0000
   4521 C          33.7258   79.1565   38.2723 C.3   4474  UNL4474     0.0000
   4522 C          32.9260   31.9297   82.7068 C.3   4475  UNL4475     0.0000
   4523 C          77.3605   34.7220   28.3794 C.3   4476  UNL4476     0.0000
   4524 C          78.1603   76.3642   72.8139 C.3   4477  UNL4477     0.0000
   4525 C          38.2723   78.1603   34.7220 C.3   4478  UNL4478     0.0000
   4526 C          82.7068   77.3605   76.3642 C.3   4479  UNL4479     0.0000
   4527 C          28.3794   32.9260   79.1565 C.3   4480  UNL4480     0.0000
   4528 C          72.8139   33.7258   31.9297 C.3   4481  UNL4481     0.0000
   4529 C          34.7220   82.7068   33.7258 C.3   4482  UNL4482     0.0000
   4530 C          76.3642   38.2723   32.9260 C.3   4483  UNL4483     0.0000
   4531 C          79.1565   72.8139   77.3605 C.3   4484  UNL4484     0.0000
   4532 C          31.9297   28.3794   78.1603 C.3   4485  UNL4485     0.0000
   4533 C          12.5048   11.5085    6.1622 C.3   4486  UNL4486     0.0000
   4534 C          54.1470   10.7087   50.5967 C.3   4487  UNL4487     0.0000
   4535 C          56.9393   55.1432   16.0551 C.3   4488  UNL4488     0.0000
   4536 C           9.7125   55.9430   60.4896 C.3   4489  UNL4489     0.0000
   4537 C          11.5085   16.0551    9.7125 C.3   4490  UNL4490     0.0000
   4538 C          10.7087   60.4896   56.9393 C.3   4491  UNL4491     0.0000
   4539 C          55.1432    6.1622   54.1470 C.3   4492  UNL4492     0.0000
   4540 C          55.9430   50.5967   12.5048 C.3   4493  UNL4493     0.0000
   4541 C          16.0551   12.5048   10.7087 C.3   4494  UNL4494     0.0000
   4542 C          60.4896   54.1470   11.5085 C.3   4495  UNL4495     0.0000
   4543 C           6.1622   56.9393   55.9430 C.3   4496  UNL4496     0.0000
   4544 C          50.5967    9.7125   55.1432 C.3   4497  UNL4497     0.0000
   4545 C          55.1432    9.7125   50.5967 C.3   4498  UNL4498     0.0000
   4546 C          55.9430   56.9393    6.1622 C.3   4499  UNL4499     0.0000
   4547 C          11.5085   54.1470   60.4896 C.3   4500  UNL4500     0.0000
   4548 C          10.7087   12.5048   16.0551 C.3   4501  UNL4501     0.0000
   4549 C          50.5967   10.7087   54.1470 C.3   4502  UNL4502     0.0000
   4550 C           6.1622   11.5085   12.5048 C.3   4503  UNL4503     0.0000
   4551 C          60.4896   55.9430    9.7125 C.3   4504  UNL4504     0.0000
   4552 C          16.0551   55.1432   56.9393 C.3   4505  UNL4505     0.0000
   4553 C          54.1470    6.1622   55.1432 C.3   4506  UNL4506     0.0000
   4554 C          12.5048   50.5967   55.9430 C.3   4507  UNL4507     0.0000
   4555 C           9.7125   16.0551   11.5085 C.3   4508  UNL4508     0.0000
   4556 C          56.9393   60.4896   10.7087 C.3   4509  UNL4509     0.0000
   4557 C          76.3642   77.3605   82.7068 C.3   4510  UNL4510     0.0000
   4558 C          34.7220   78.1603   38.2723 C.3   4511  UNL4511     0.0000
   4559 C          31.9297   33.7258   72.8139 C.3   4512  UNL4512     0.0000
   4560 C          79.1565   32.9260   28.3794 C.3   4513  UNL4513     0.0000
   4561 C          77.3605   72.8139   79.1565 C.3   4514  UNL4514     0.0000
   4562 C          78.1603   28.3794   31.9297 C.3   4515  UNL4515     0.0000
   4563 C          33.7258   82.7068   34.7220 C.3   4516  UNL4516     0.0000
   4564 C          32.9260   38.2723   76.3642 C.3   4517  UNL4517     0.0000
   4565 C          72.8139   76.3642   78.1603 C.3   4518  UNL4518     0.0000
   4566 C          28.3794   34.7220   77.3605 C.3   4519  UNL4519     0.0000
   4567 C          82.7068   31.9297   32.9260 C.3   4520  UNL4520     0.0000
   4568 C          38.2723   79.1565   33.7258 C.3   4521  UNL4521     0.0000
   4569 C          33.7258   34.7220   82.7068 C.3   4522  UNL4522     0.0000
   4570 C          32.9260   76.3642   38.2723 C.3   4523  UNL4523     0.0000
   4571 C          77.3605   79.1565   72.8139 C.3   4524  UNL4524     0.0000
   4572 C          78.1603   31.9297   28.3794 C.3   4525  UNL4525     0.0000
   4573 C          38.2723   33.7258   79.1565 C.3   4526  UNL4526     0.0000
   4574 C          82.7068   32.9260   31.9297 C.3   4527  UNL4527     0.0000
   4575 C          28.3794   77.3605   34.7220 C.3   4528  UNL4528     0.0000
   4576 C          72.8139   78.1603   76.3642 C.3   4529  UNL4529     0.0000
   4577 C          34.7220   38.2723   78.1603 C.3   4530  UNL4530     0.0000
   4578 C          76.3642   82.7068   77.3605 C.3   4531  UNL4531     0.0000
   4579 C          79.1565   28.3794   32.9260 C.3   4532  UNL4532     0.0000
   4580 C          31.9297   72.8139   33.7258 C.3   4533  UNL4533     0.0000
   4581 C          12.5048   55.9430   50.5967 C.3   4534  UNL4534     0.0000
   4582 C          54.1470   55.1432    6.1622 C.3   4535  UNL4535     0.0000
   4583 C          56.9393   10.7087   60.4896 C.3   4536  UNL4536     0.0000
   4584 C           9.7125   11.5085   16.0551 C.3   4537  UNL4537     0.0000
   4585 C          11.5085   60.4896   54.1470 C.3   4538  UNL4538     0.0000
   4586 C          10.7087   16.0551   12.5048 C.3   4539  UNL4539     0.0000
   4587 C          55.1432   50.5967    9.7125 C.3   4540  UNL4540     0.0000
   4588 C          55.9430    6.1622   56.9393 C.3   4541  UNL4541     0.0000
   4589 C          16.0551   56.9393   55.1432 C.3   4542  UNL4542     0.0000
   4590 C          60.4896    9.7125   55.9430 C.3   4543  UNL4543     0.0000
   4591 C           6.1622   12.5048   11.5085 C.3   4544  UNL4544     0.0000
   4592 C          50.5967   54.1470   10.7087 C.3   4545  UNL4545     0.0000
   4593 C          55.1432   54.1470    6.1622 C.3   4546  UNL4546     0.0000
   4594 C          55.9430   12.5048   50.5967 C.3   4547  UNL4547     0.0000
   4595 C          11.5085    9.7125   16.0551 C.3   4548  UNL4548     0.0000
   4596 C          10.7087   56.9393   60.4896 C.3   4549  UNL4549     0.0000
   4597 C          50.5967   55.1432    9.7125 C.3   4550  UNL4550     0.0000
   4598 C           6.1622   55.9430   56.9393 C.3   4551  UNL4551     0.0000
   4599 C          60.4896   11.5085   54.1470 C.3   4552  UNL4552     0.0000
   4600 C          16.0551   10.7087   12.5048 C.3   4553  UNL4553     0.0000
   4601 C          54.1470   50.5967   10.7087 C.3   4554  UNL4554     0.0000
   4602 C          12.5048    6.1622   11.5085 C.3   4555  UNL4555     0.0000
   4603 C           9.7125   60.4896   55.9430 C.3   4556  UNL4556     0.0000
   4604 C          56.9393   16.0551   55.1432 C.3   4557  UNL4557     0.0000
   4605 C          76.3642   32.9260   38.2723 C.3   4558  UNL4558     0.0000
   4606 C          34.7220   33.7258   82.7068 C.3   4559  UNL4559     0.0000
   4607 C          31.9297   78.1603   28.3794 C.3   4560  UNL4560     0.0000
   4608 C          79.1565   77.3605   72.8139 C.3   4561  UNL4561     0.0000
   4609 C          77.3605   28.3794   34.7220 C.3   4562  UNL4562     0.0000
   4610 C          78.1603   72.8139   76.3642 C.3   4563  UNL4563     0.0000
   4611 C          33.7258   38.2723   79.1565 C.3   4564  UNL4564     0.0000
   4612 C          32.9260   82.7068   31.9297 C.3   4565  UNL4565     0.0000
   4613 C          72.8139   31.9297   33.7258 C.3   4566  UNL4566     0.0000
   4614 C          28.3794   79.1565   32.9260 C.3   4567  UNL4567     0.0000
   4615 C          82.7068   76.3642   77.3605 C.3   4568  UNL4568     0.0000
   4616 C          38.2723   34.7220   78.1603 C.3   4569  UNL4569     0.0000
   4617 C          53.6253   13.0273   50.3123 C.3   4570  UNL4570     0.0000
   4618 C           9.1908   53.6244   60.7739 C.3   4571  UNL4571     0.0000
   4619 C          57.4609   57.4618   16.3395 C.3   4572  UNL4572     0.0000
   4620 C           5.8778   13.0264    9.1899 C.3   4573  UNL4573     0.0000
   4621 C          50.3123   53.6253   13.0273 C.3   4574  UNL4574     0.0000
   4622 C          60.7739    9.1908   53.6244 C.3   4575  UNL4575     0.0000
   4623 C          16.3395   57.4609   57.4618 C.3   4576  UNL4576     0.0000
   4624 C           9.1899    5.8778   13.0264 C.3   4577  UNL4577     0.0000
   4625 C          13.0273   50.3123   53.6253 C.3   4578  UNL4578     0.0000
   4626 C          53.6244   60.7739    9.1908 C.3   4579  UNL4579     0.0000
   4627 C          57.4618   16.3395   57.4609 C.3   4580  UNL4580     0.0000
   4628 C          75.8417   35.2437   38.5567 C.3   4581  UNL4581     0.0000
   4629 C          79.6790   75.8426   82.9912 C.3   4582  UNL4582     0.0000
   4630 C          31.4072   31.4081   72.5295 C.3   4583  UNL4583     0.0000
   4631 C          35.2446   79.6782   28.0950 C.3   4584  UNL4584     0.0000
   4632 C          79.6782   28.0950   35.2446 C.3   4585  UNL4585     0.0000
   4633 C          31.4081   72.5295   31.4072 C.3   4586  UNL4586     0.0000
   4634 C          75.8426   82.9912   79.6790 C.3   4587  UNL4587     0.0000
   4635 C          35.2437   38.5567   75.8417 C.3   4588  UNL4588     0.0000
   4636 C          72.5295   31.4072   31.4081 C.3   4589  UNL4589     0.0000
   4637 C          28.0950   35.2446   79.6782 C.3   4590  UNL4590     0.0000
   4638 C          38.5567   75.8417   35.2437 C.3   4591  UNL4591     0.0000
   4639 C          82.9912   79.6790   75.8426 C.3   4592  UNL4592     0.0000
   4640 C          75.8426   79.6790   82.9912 C.3   4593  UNL4593     0.0000
   4641 C          35.2437   75.8417   38.5567 C.3   4594  UNL4594     0.0000
   4642 C          79.6782   35.2446   28.0950 C.3   4595  UNL4595     0.0000
   4643 C          82.9912   75.8426   79.6790 C.3   4596  UNL4596     0.0000
   4644 C          38.5567   35.2437   75.8417 C.3   4597  UNL4597     0.0000
   4645 C          28.0950   79.6782   35.2446 C.3   4598  UNL4598     0.0000
   4646 C          79.6790   82.9912   75.8426 C.3   4599  UNL4599     0.0000
   4647 C          75.8417   38.5567   35.2437 C.3   4600  UNL4600     0.0000
   4648 C          35.2446   28.0950   79.6782 C.3   4601  UNL4601     0.0000
   4649 C          13.0273   53.6253   50.3123 C.3   4602  UNL4602     0.0000
   4650 C           9.1899   13.0264    5.8778 C.3   4603  UNL4603     0.0000
   4651 C          53.6244    9.1908   60.7739 C.3   4604  UNL4604     0.0000
   4652 C           9.1908   60.7739   53.6244 C.3   4605  UNL4605     0.0000
   4653 C          13.0264    5.8778    9.1899 C.3   4606  UNL4606     0.0000
   4654 C          53.6253   50.3123   13.0273 C.3   4607  UNL4607     0.0000
   4655 C          60.7739   53.6244    9.1908 C.3   4608  UNL4608     0.0000
   4656 C          50.3123   13.0273   53.6253 C.3   4609  UNL4609     0.0000
   4657 C           5.8778    9.1899   13.0264 C.3   4610  UNL4610     0.0000
   4658 C          53.6253   57.4618    5.8778 C.3   4611  UNL4611     0.0000
   4659 C           9.1908    9.1899   16.3395 C.3   4612  UNL4612     0.0000
   4660 C          57.4609   13.0273   60.7739 C.3   4613  UNL4613     0.0000
   4661 C           5.8778   57.4609   53.6244 C.3   4614  UNL4614     0.0000
   4662 C          50.3123    9.1908   57.4618 C.3   4615  UNL4615     0.0000
   4663 C          16.3395   13.0264   13.0273 C.3   4616  UNL4616     0.0000
   4664 C           9.1899   50.3123   57.4609 C.3   4617  UNL4617     0.0000
   4665 C          53.6244   16.3395   53.6253 C.3   4618  UNL4618     0.0000
   4666 C          57.4618   60.7739   13.0264 C.3   4619  UNL4619     0.0000
   4667 C          79.6790   31.4081   38.5567 C.3   4620  UNL4620     0.0000
   4668 C          31.4072   75.8426   28.0950 C.3   4621  UNL4621     0.0000
   4669 C          35.2446   35.2437   72.5295 C.3   4622  UNL4622     0.0000
   4670 C          79.6782   72.5295   79.6790 C.3   4623  UNL4623     0.0000
   4671 C          31.4081   28.0950   75.8417 C.3   4624  UNL4624     0.0000
   4672 C          35.2437   82.9912   31.4072 C.3   4625  UNL4625     0.0000
   4673 C          72.5295   75.8417   75.8426 C.3   4626  UNL4626     0.0000
   4674 C          38.5567   31.4072   79.6782 C.3   4627  UNL4627     0.0000
   4675 C          82.9912   35.2446   31.4081 C.3   4628  UNL4628     0.0000
   4676 C          35.2437   31.4072   82.9912 C.3   4629  UNL4629     0.0000
   4677 C          79.6782   79.6790   72.5295 C.3   4630  UNL4630     0.0000
   4678 C          82.9912   31.4081   35.2446 C.3   4631  UNL4631     0.0000
   4679 C          38.5567   79.6782   31.4072 C.3   4632  UNL4632     0.0000
   4680 C          79.6790   38.5567   31.4081 C.3   4633  UNL4633     0.0000
   4681 C          35.2446   72.5295   35.2437 C.3   4634  UNL4634     0.0000
   4682 C           9.1899   57.4609   50.3123 C.3   4635  UNL4635     0.0000
   4683 C          53.6244   53.6253   16.3395 C.3   4636  UNL4636     0.0000
   4684 C           9.1908   16.3395    9.1899 C.3   4637  UNL4637     0.0000
   4685 C          53.6253    5.8778   57.4618 C.3   4638  UNL4638     0.0000
   4686 C          50.3123   57.4618    9.1908 C.3   4639  UNL4639     0.0000
   4687 C           5.8778   53.6244   57.4609 C.3   4640  UNL4640     0.0000
   4688 C          57.4609    9.1899   50.3123 C.3   4641  UNL4641     0.0000
   4689 C          13.0264   57.4618   60.7739 C.3   4642  UNL4642     0.0000
   4690 C          16.3395    9.1908    9.1899 C.3   4643  UNL4643     0.0000
   4691 C          60.7739   57.4609   13.0273 C.3   4644  UNL4644     0.0000
   4692 C          57.4618   50.3123    9.1908 C.3   4645  UNL4645     0.0000
   4693 C          13.0273   16.3395   13.0264 C.3   4646  UNL4646     0.0000
   4694 C          31.4072   35.2437   82.9912 C.3   4647  UNL4647     0.0000
   4695 C          75.8417   31.4081   28.0950 C.3   4648  UNL4648     0.0000
   4696 C          75.8426   72.5295   75.8417 C.3   4649  UNL4649     0.0000
   4697 C          31.4081   82.9912   35.2446 C.3   4650  UNL4650     0.0000
   4698 C          28.0950   31.4072   75.8426 C.3   4651  UNL4651     0.0000
   4699 C          72.5295   35.2446   35.2437 C.3   4652  UNL4652     0.0000
   4700 C          31.4081   79.6790   38.5567 C.3   4653  UNL4653     0.0000
   4701 C          72.5295   79.6782   79.6790 C.3   4654  UNL4654     0.0000
   4702 C          31.4072   38.5567   79.6782 C.3   4655  UNL4655     0.0000
   4703 C          57.4618   53.6253    5.8778 C.3   4656  UNL4656     0.0000
   4704 C          57.4609    5.8778   53.6244 C.3   4657  UNL4657     0.0000
   4705 C          16.3395   53.6244   53.6253 C.3   4658  UNL4658     0.0000
   4706 C          13.0264   13.0273   16.3395 C.3   4659  UNL4659     0.0000
   4707 C          60.7739   13.0264   57.4618 C.3   4660  UNL4660     0.0000
   4708 C          13.0273   60.7739   57.4609 C.3   4661  UNL4661     0.0000
   4709 C          75.8417   75.8426   72.5295 C.3   4662  UNL4662     0.0000
   4710 C          75.8426   28.0950   31.4072 C.3   4663  UNL4663     0.0000
   4711 C          28.0950   75.8417   31.4081 C.3   4664  UNL4664     0.0000
   4712 C          54.5860   12.0657   50.3709 C.3   4665  UNL4665     0.0000
   4713 C          10.1515   54.5860   60.7153 C.3   4666  UNL4666     0.0000
   4714 C          56.5002   56.5002   16.2808 C.3   4667  UNL4667     0.0000
   4715 C           5.9364   12.0657   10.1515 C.3   4668  UNL4668     0.0000
   4716 C          50.3709   54.5860   12.0657 C.3   4669  UNL4669     0.0000
   4717 C          60.7153   10.1515   54.5860 C.3   4670  UNL4670     0.0000
   4718 C          16.2808   56.5002   56.5002 C.3   4671  UNL4671     0.0000
   4719 C          10.1515    5.9364   12.0657 C.3   4672  UNL4672     0.0000
   4720 C          12.0657   50.3709   54.5860 C.3   4673  UNL4673     0.0000
   4721 C          54.5860   60.7153   10.1515 C.3   4674  UNL4674     0.0000
   4722 C          56.5002   16.2808   56.5002 C.3   4675  UNL4675     0.0000
   4723 C          76.8032   34.2830   38.4980 C.3   4676  UNL4676     0.0000
   4724 C          78.7175   76.8032   82.9325 C.3   4677  UNL4677     0.0000
   4725 C          32.3688   32.3688   72.5882 C.3   4678  UNL4678     0.0000
   4726 C          34.2830   78.7175   28.1537 C.3   4679  UNL4679     0.0000
   4727 C          78.7175   28.1537   34.2830 C.3   4680  UNL4680     0.0000
   4728 C          32.3688   72.5882   32.3688 C.3   4681  UNL4681     0.0000
   4729 C          76.8032   82.9325   78.7175 C.3   4682  UNL4682     0.0000
   4730 C          34.2830   38.4980   76.8032 C.3   4683  UNL4683     0.0000
   4731 C          72.5882   32.3688   32.3688 C.3   4684  UNL4684     0.0000
   4732 C          28.1537   34.2830   78.7175 C.3   4685  UNL4685     0.0000
   4733 C          38.4980   76.8032   34.2830 C.3   4686  UNL4686     0.0000
   4734 C          82.9325   78.7175   76.8032 C.3   4687  UNL4687     0.0000
   4735 C          76.8032   78.7175   82.9325 C.3   4688  UNL4688     0.0000
   4736 C          34.2830   76.8032   38.4980 C.3   4689  UNL4689     0.0000
   4737 C          78.7175   34.2830   28.1537 C.3   4690  UNL4690     0.0000
   4738 C          82.9325   76.8032   78.7175 C.3   4691  UNL4691     0.0000
   4739 C          38.4980   34.2830   76.8032 C.3   4692  UNL4692     0.0000
   4740 C          28.1537   78.7175   34.2830 C.3   4693  UNL4693     0.0000
   4741 C          78.7175   82.9325   76.8032 C.3   4694  UNL4694     0.0000
   4742 C          76.8032   38.4980   34.2830 C.3   4695  UNL4695     0.0000
   4743 C          34.2830   28.1537   78.7175 C.3   4696  UNL4696     0.0000
   4744 C          12.0657   54.5860   50.3709 C.3   4697  UNL4697     0.0000
   4745 C          10.1515   12.0657    5.9364 C.3   4698  UNL4698     0.0000
   4746 C          54.5860   10.1515   60.7153 C.3   4699  UNL4699     0.0000
   4747 C          10.1515   60.7153   54.5860 C.3   4700  UNL4700     0.0000
   4748 C          12.0657    5.9364   10.1515 C.3   4701  UNL4701     0.0000
   4749 C          54.5860   50.3709   12.0657 C.3   4702  UNL4702     0.0000
   4750 C          60.7153   54.5860   10.1515 C.3   4703  UNL4703     0.0000
   4751 C          50.3709   12.0657   54.5860 C.3   4704  UNL4704     0.0000
   4752 C           5.9364   10.1515   12.0657 C.3   4705  UNL4705     0.0000
   4753 C          54.5860   56.5002    5.9364 C.3   4706  UNL4706     0.0000
   4754 C          10.1515   10.1515   16.2808 C.3   4707  UNL4707     0.0000
   4755 C          56.5002   12.0657   60.7153 C.3   4708  UNL4708     0.0000
   4756 C           5.9364   56.5002   54.5860 C.3   4709  UNL4709     0.0000
   4757 C          50.3709   10.1515   56.5002 C.3   4710  UNL4710     0.0000
   4758 C          16.2808   12.0657   12.0657 C.3   4711  UNL4711     0.0000
   4759 C          10.1515   50.3709   56.5002 C.3   4712  UNL4712     0.0000
   4760 C          54.5860   16.2808   54.5860 C.3   4713  UNL4713     0.0000
   4761 C          56.5002   60.7153   12.0657 C.3   4714  UNL4714     0.0000
   4762 C          78.7175   32.3688   38.4980 C.3   4715  UNL4715     0.0000
   4763 C          32.3688   76.8032   28.1537 C.3   4716  UNL4716     0.0000
   4764 C          34.2830   34.2830   72.5882 C.3   4717  UNL4717     0.0000
   4765 C          78.7175   72.5882   78.7175 C.3   4718  UNL4718     0.0000
   4766 C          32.3688   28.1537   76.8032 C.3   4719  UNL4719     0.0000
   4767 C          34.2830   82.9325   32.3688 C.3   4720  UNL4720     0.0000
   4768 C          72.5882   76.8032   76.8032 C.3   4721  UNL4721     0.0000
   4769 C          38.4980   32.3688   78.7175 C.3   4722  UNL4722     0.0000
   4770 C          82.9325   34.2830   32.3688 C.3   4723  UNL4723     0.0000
   4771 C          34.2830   32.3688   82.9325 C.3   4724  UNL4724     0.0000
   4772 C          78.7175   78.7175   72.5882 C.3   4725  UNL4725     0.0000
   4773 C          82.9325   32.3688   34.2830 C.3   4726  UNL4726     0.0000
   4774 C          38.4980   78.7175   32.3688 C.3   4727  UNL4727     0.0000
   4775 C          78.7175   38.4980   32.3688 C.3   4728  UNL4728     0.0000
   4776 C          34.2830   72.5882   34.2830 C.3   4729  UNL4729     0.0000
   4777 C          10.1515   56.5002   50.3709 C.3   4730  UNL4730     0.0000
   4778 C          54.5860   54.5860   16.2808 C.3   4731  UNL4731     0.0000
   4779 C          10.1515   16.2808   10.1515 C.3   4732  UNL4732     0.0000
   4780 C          54.5860    5.9364   56.5002 C.3   4733  UNL4733     0.0000
   4781 C          50.3709   56.5002   10.1515 C.3   4734  UNL4734     0.0000
   4782 C           5.9364   54.5860   56.5002 C.3   4735  UNL4735     0.0000
   4783 C          56.5002   10.1515   50.3709 C.3   4736  UNL4736     0.0000
   4784 C          12.0657   56.5002   60.7153 C.3   4737  UNL4737     0.0000
   4785 C          16.2808   10.1515   10.1515 C.3   4738  UNL4738     0.0000
   4786 C          60.7153   56.5002   12.0657 C.3   4739  UNL4739     0.0000
   4787 C          56.5002   50.3709   10.1515 C.3   4740  UNL4740     0.0000
   4788 C          12.0657   16.2808   12.0657 C.3   4741  UNL4741     0.0000
   4789 C          32.3688   34.2830   82.9325 C.3   4742  UNL4742     0.0000
   4790 C          76.8032   32.3688   28.1537 C.3   4743  UNL4743     0.0000
   4791 C          76.8032   72.5882   76.8032 C.3   4744  UNL4744     0.0000
   4792 C          32.3688   82.9325   34.2830 C.3   4745  UNL4745     0.0000
   4793 C          28.1537   32.3688   76.8032 C.3   4746  UNL4746     0.0000
   4794 C          72.5882   34.2830   34.2830 C.3   4747  UNL4747     0.0000
   4795 C          32.3688   78.7175   38.4980 C.3   4748  UNL4748     0.0000
   4796 C          72.5882   78.7175   78.7175 C.3   4749  UNL4749     0.0000
   4797 C          32.3688   38.4980   78.7175 C.3   4750  UNL4750     0.0000
   4798 C          56.5002   54.5860    5.9364 C.3   4751  UNL4751     0.0000
   4799 C          56.5002    5.9364   54.5860 C.3   4752  UNL4752     0.0000
   4800 C          16.2808   54.5860   54.5860 C.3   4753  UNL4753     0.0000
   4801 C          12.0657   12.0657   16.2808 C.3   4754  UNL4754     0.0000
   4802 C          60.7153   12.0657   56.5002 C.3   4755  UNL4755     0.0000
   4803 C          12.0657   60.7153   56.5002 C.3   4756  UNL4756     0.0000
   4804 C          76.8032   76.8032   72.5882 C.3   4757  UNL4757     0.0000
   4805 C          76.8032   28.1537   32.3688 C.3   4758  UNL4758     0.0000
   4806 C          28.1537   76.8032   32.3688 C.3   4759  UNL4759     0.0000
   4807 C          37.1801   83.3591   22.6678 C.3   4760  UNL4760     0.0000
   4808 C          81.6146   72.1616   88.4184 C.3   4761  UNL4761     0.0000
   4809 C          73.9061   38.9246   43.9839 C.3   4762  UNL4762     0.0000
   4810 C          67.1023   29.4716   27.7271 C.3   4763  UNL4763     0.0000
   4811 C          22.6678   37.1801   83.3591 C.3   4764  UNL4764     0.0000
   4812 C          88.4184   81.6146   72.1616 C.3   4765  UNL4765     0.0000
   4813 C          43.9839   73.9061   38.9246 C.3   4766  UNL4766     0.0000
   4814 C          27.7271   67.1023   29.4716 C.3   4767  UNL4767     0.0000
   4815 C          83.3591   22.6678   37.1801 C.3   4768  UNL4768     0.0000
   4816 C          72.1616   88.4184   81.6146 C.3   4769  UNL4769     0.0000
   4817 C          38.9246   43.9839   73.9061 C.3   4770  UNL4770     0.0000
   4818 C           5.5099   51.6889   66.2012 C.3   4771  UNL4771     0.0000
   4819 C          61.1419   59.3974   21.7667 C.3   4772  UNL4772     0.0000
   4820 C          49.9444   14.9629   44.8851 C.3   4773  UNL4773     0.0000
   4821 C          16.7074    7.2544    0.4506 C.3   4774  UNL4774     0.0000
   4822 C           7.2544    0.4506   16.7074 C.3   4775  UNL4775     0.0000
   4823 C          14.9629   44.8851   49.9444 C.3   4776  UNL4776     0.0000
   4824 C          59.3974   21.7667   61.1419 C.3   4777  UNL4777     0.0000
   4825 C          51.6889   66.2012    5.5099 C.3   4778  UNL4778     0.0000
   4826 C          44.8851   49.9444   14.9629 C.3   4779  UNL4779     0.0000
   4827 C           0.4506   16.7074    7.2544 C.3   4780  UNL4780     0.0000
   4828 C          66.2012    5.5099   51.6889 C.3   4781  UNL4781     0.0000
   4829 C          21.7667   61.1419   59.3974 C.3   4782  UNL4782     0.0000
   4830 C          59.3974   61.1419   21.7667 C.3   4783  UNL4783     0.0000
   4831 C          51.6889    5.5099   66.2012 C.3   4784  UNL4784     0.0000
   4832 C           7.2544   16.7074    0.4506 C.3   4785  UNL4785     0.0000
   4833 C          14.9629   49.9444   44.8851 C.3   4786  UNL4786     0.0000
   4834 C          21.7667   59.3974   61.1419 C.3   4787  UNL4787     0.0000
   4835 C          66.2012   51.6889    5.5099 C.3   4788  UNL4788     0.0000
   4836 C           0.4506    7.2544   16.7074 C.3   4789  UNL4789     0.0000
   4837 C          44.8851   14.9629   49.9444 C.3   4790  UNL4790     0.0000
   4838 C          61.1419   21.7667   59.3974 C.3   4791  UNL4791     0.0000
   4839 C           5.5099   66.2012   51.6889 C.3   4792  UNL4792     0.0000
   4840 C          16.7074    0.4506    7.2544 C.3   4793  UNL4793     0.0000
   4841 C          49.9444   44.8851   14.9629 C.3   4794  UNL4794     0.0000
   4842 C          83.3591   37.1801   22.6678 C.3   4795  UNL4795     0.0000
   4843 C          27.7271   29.4716   67.1023 C.3   4796  UNL4796     0.0000
   4844 C          38.9246   73.9061   43.9839 C.3   4797  UNL4797     0.0000
   4845 C          72.1616   81.6146   88.4184 C.3   4798  UNL4798     0.0000
   4846 C          81.6146   88.4184   72.1616 C.3   4799  UNL4799     0.0000
   4847 C          73.9061   43.9839   38.9246 C.3   4800  UNL4800     0.0000
   4848 C          29.4716   67.1023   27.7271 C.3   4801  UNL4801     0.0000
   4849 C          37.1801   22.6678   83.3591 C.3   4802  UNL4802     0.0000
   4850 C          43.9839   38.9246   73.9061 C.3   4803  UNL4803     0.0000
   4851 C          88.4184   72.1616   81.6146 C.3   4804  UNL4804     0.0000
   4852 C          22.6678   83.3591   37.1801 C.3   4805  UNL4805     0.0000
   4853 C          67.1023   27.7271   29.4716 C.3   4806  UNL4806     0.0000
   4854 C          29.4716   72.1616   22.6678 C.3   4807  UNL4807     0.0000
   4855 C          37.1801   38.9246   67.1023 C.3   4808  UNL4808     0.0000
   4856 C          81.6146   27.7271   43.9839 C.3   4809  UNL4809     0.0000
   4857 C          73.9061   83.3591   88.4184 C.3   4810  UNL4810     0.0000
   4858 C          67.1023   73.9061   72.1616 C.3   4811  UNL4811     0.0000
   4859 C          22.6678   81.6146   38.9246 C.3   4812  UNL4812     0.0000
   4860 C          88.4184   37.1801   27.7271 C.3   4813  UNL4813     0.0000
   4861 C          43.9839   29.4716   83.3591 C.3   4814  UNL4814     0.0000
   4862 C          27.7271   22.6678   73.9061 C.3   4815  UNL4815     0.0000
   4863 C          83.3591   67.1023   81.6146 C.3   4816  UNL4816     0.0000
   4864 C          72.1616   43.9839   37.1801 C.3   4817  UNL4817     0.0000
   4865 C          38.9246   88.4184   29.4716 C.3   4818  UNL4818     0.0000
   4866 C           5.5099    7.2544   21.7667 C.3   4819  UNL4819     0.0000
   4867 C          61.1419   14.9629   66.2012 C.3   4820  UNL4820     0.0000
   4868 C          49.9444   59.3974    0.4506 C.3   4821  UNL4821     0.0000
   4869 C          16.7074   51.6889   44.8851 C.3   4822  UNL4822     0.0000
   4870 C           7.2544   44.8851   61.1419 C.3   4823  UNL4823     0.0000
   4871 C          14.9629    0.4506    5.5099 C.3   4824  UNL4824     0.0000
   4872 C          59.3974   66.2012   16.7074 C.3   4825  UNL4825     0.0000
   4873 C          51.6889   21.7667   49.9444 C.3   4826  UNL4826     0.0000
   4874 C          44.8851    5.5099   59.3974 C.3   4827  UNL4827     0.0000
   4875 C           0.4506   61.1419   51.6889 C.3   4828  UNL4828     0.0000
   4876 C          66.2012   49.9444    7.2544 C.3   4829  UNL4829     0.0000
   4877 C          21.7667   16.7074   14.9629 C.3   4830  UNL4830     0.0000
   4878 C          59.3974   16.7074   66.2012 C.3   4831  UNL4831     0.0000
   4879 C          51.6889   49.9444   21.7667 C.3   4832  UNL4832     0.0000
   4880 C           7.2544   61.1419   44.8851 C.3   4833  UNL4833     0.0000
   4881 C          14.9629    5.5099    0.4506 C.3   4834  UNL4834     0.0000
   4882 C          21.7667   14.9629   16.7074 C.3   4835  UNL4835     0.0000
   4883 C          66.2012    7.2544   49.9444 C.3   4836  UNL4836     0.0000
   4884 C           0.4506   51.6889   61.1419 C.3   4837  UNL4837     0.0000
   4885 C          44.8851   59.3974    5.5099 C.3   4838  UNL4838     0.0000
   4886 C          61.1419   66.2012   14.9629 C.3   4839  UNL4839     0.0000
   4887 C           5.5099   21.7667    7.2544 C.3   4840  UNL4840     0.0000
   4888 C          16.7074   44.8851   51.6889 C.3   4841  UNL4841     0.0000
   4889 C          49.9444    0.4506   59.3974 C.3   4842  UNL4842     0.0000
   4890 C          83.3591   81.6146   67.1023 C.3   4843  UNL4843     0.0000
   4891 C          27.7271   73.9061   22.6678 C.3   4844  UNL4844     0.0000
   4892 C          38.9246   29.4716   88.4184 C.3   4845  UNL4845     0.0000
   4893 C          72.1616   37.1801   43.9839 C.3   4846  UNL4846     0.0000
   4894 C          81.6146   43.9839   27.7271 C.3   4847  UNL4847     0.0000
   4895 C          73.9061   88.4184   83.3591 C.3   4848  UNL4848     0.0000
   4896 C          29.4716   22.6678   72.1616 C.3   4849  UNL4849     0.0000
   4897 C          37.1801   67.1023   38.9246 C.3   4850  UNL4850     0.0000
   4898 C          43.9839   83.3591   29.4716 C.3   4851  UNL4851     0.0000
   4899 C          88.4184   27.7271   37.1801 C.3   4852  UNL4852     0.0000
   4900 C          22.6678   38.9246   81.6146 C.3   4853  UNL4853     0.0000
   4901 C          67.1023   72.1616   73.9061 C.3   4854  UNL4854     0.0000
   4902 C          73.9061   27.7271   22.6678 C.3   4855  UNL4855     0.0000
   4903 C          81.6146   83.3591   67.1023 C.3   4856  UNL4856     0.0000
   4904 C          37.1801   72.1616   43.9839 C.3   4857  UNL4857     0.0000
   4905 C          29.4716   38.9246   88.4184 C.3   4858  UNL4858     0.0000
   4906 C          22.6678   29.4716   72.1616 C.3   4859  UNL4859     0.0000
   4907 C          67.1023   37.1801   38.9246 C.3   4860  UNL4860     0.0000
   4908 C          43.9839   81.6146   27.7271 C.3   4861  UNL4861     0.0000
   4909 C          88.4184   73.9061   83.3591 C.3   4862  UNL4862     0.0000
   4910 C          72.1616   67.1023   73.9061 C.3   4863  UNL4863     0.0000
   4911 C          38.9246   22.6678   81.6146 C.3   4864  UNL4864     0.0000
   4912 C          27.7271   88.4184   37.1801 C.3   4865  UNL4865     0.0000
   4913 C          83.3591   43.9839   29.4716 C.3   4866  UNL4866     0.0000
   4914 C          49.9444   51.6889   21.7667 C.3   4867  UNL4867     0.0000
   4915 C          16.7074   59.3974   66.2012 C.3   4868  UNL4868     0.0000
   4916 C           5.5099   14.9629    0.4506 C.3   4869  UNL4869     0.0000
   4917 C          61.1419    7.2544   44.8851 C.3   4870  UNL4870     0.0000
   4918 C          51.6889    0.4506   61.1419 C.3   4871  UNL4871     0.0000
   4919 C          59.3974   44.8851    5.5099 C.3   4872  UNL4872     0.0000
   4920 C          14.9629   21.7667   16.7074 C.3   4873  UNL4873     0.0000
   4921 C           7.2544   66.2012   49.9444 C.3   4874  UNL4874     0.0000
   4922 C           0.4506   49.9444   59.3974 C.3   4875  UNL4875     0.0000
   4923 C          44.8851   16.7074   51.6889 C.3   4876  UNL4876     0.0000
   4924 C          21.7667    5.5099    7.2544 C.3   4877  UNL4877     0.0000
   4925 C          66.2012   61.1419   14.9629 C.3   4878  UNL4878     0.0000
   4926 C          14.9629   61.1419   66.2012 C.3   4879  UNL4879     0.0000
   4927 C           7.2544    5.5099   21.7667 C.3   4880  UNL4880     0.0000
   4928 C          51.6889   16.7074   44.8851 C.3   4881  UNL4881     0.0000
   4929 C          59.3974   49.9444    0.4506 C.3   4882  UNL4882     0.0000
   4930 C          66.2012   59.3974   16.7074 C.3   4883  UNL4883     0.0000
   4931 C          21.7667   51.6889   49.9444 C.3   4884  UNL4884     0.0000
   4932 C          44.8851    7.2544   61.1419 C.3   4885  UNL4885     0.0000
   4933 C           0.4506   14.9629    5.5099 C.3   4886  UNL4886     0.0000
   4934 C          16.7074   21.7667   14.9629 C.3   4887  UNL4887     0.0000
   4935 C          49.9444   66.2012    7.2544 C.3   4888  UNL4888     0.0000
   4936 C          61.1419    0.4506   51.6889 C.3   4889  UNL4889     0.0000
   4937 C           5.5099   44.8851   59.3974 C.3   4890  UNL4890     0.0000
   4938 C          38.9246   37.1801   67.1023 C.3   4891  UNL4891     0.0000
   4939 C          72.1616   29.4716   22.6678 C.3   4892  UNL4892     0.0000
   4940 C          83.3591   73.9061   88.4184 C.3   4893  UNL4893     0.0000
   4941 C          27.7271   81.6146   43.9839 C.3   4894  UNL4894     0.0000
   4942 C          37.1801   88.4184   27.7271 C.3   4895  UNL4895     0.0000
   4943 C          29.4716   43.9839   83.3591 C.3   4896  UNL4896     0.0000
   4944 C          73.9061   67.1023   72.1616 C.3   4897  UNL4897     0.0000
   4945 C          81.6146   22.6678   38.9246 C.3   4898  UNL4898     0.0000
   4946 C          88.4184   38.9246   29.4716 C.3   4899  UNL4899     0.0000
   4947 C          43.9839   72.1616   37.1801 C.3   4900  UNL4900     0.0000
   4948 C          67.1023   83.3591   81.6146 C.3   4901  UNL4901     0.0000
   4949 C          22.6678   27.7271   73.9061 C.3   4902  UNL4902     0.0000
   4950 C          73.9061   72.1616   67.1023 C.3   4903  UNL4903     0.0000
   4951 C          81.6146   38.9246   22.6678 C.3   4904  UNL4904     0.0000
   4952 C          37.1801   27.7271   88.4184 C.3   4905  UNL4905     0.0000
   4953 C          29.4716   83.3591   43.9839 C.3   4906  UNL4906     0.0000
   4954 C          22.6678   73.9061   27.7271 C.3   4907  UNL4907     0.0000
   4955 C          67.1023   81.6146   83.3591 C.3   4908  UNL4908     0.0000
   4956 C          43.9839   37.1801   72.1616 C.3   4909  UNL4909     0.0000
   4957 C          88.4184   29.4716   38.9246 C.3   4910  UNL4910     0.0000
   4958 C          72.1616   22.6678   29.4716 C.3   4911  UNL4911     0.0000
   4959 C          38.9246   67.1023   37.1801 C.3   4912  UNL4912     0.0000
   4960 C          27.7271   43.9839   81.6146 C.3   4913  UNL4913     0.0000
   4961 C          83.3591   88.4184   73.9061 C.3   4914  UNL4914     0.0000
   4962 C          49.9444    7.2544   66.2012 C.3   4915  UNL4915     0.0000
   4963 C          16.7074   14.9629   21.7667 C.3   4916  UNL4916     0.0000
   4964 C           5.5099   59.3974   44.8851 C.3   4917  UNL4917     0.0000
   4965 C          61.1419   51.6889    0.4506 C.3   4918  UNL4918     0.0000
   4966 C          51.6889   44.8851   16.7074 C.3   4919  UNL4919     0.0000
   4967 C          59.3974    0.4506   49.9444 C.3   4920  UNL4920     0.0000
   4968 C          14.9629   66.2012   61.1419 C.3   4921  UNL4921     0.0000
   4969 C           7.2544   21.7667    5.5099 C.3   4922  UNL4922     0.0000
   4970 C           0.4506    5.5099   14.9629 C.3   4923  UNL4923     0.0000
   4971 C          44.8851   61.1419    7.2544 C.3   4924  UNL4924     0.0000
   4972 C          21.7667   49.9444   51.6889 C.3   4925  UNL4925     0.0000
   4973 C          66.2012   16.7074   59.3974 C.3   4926  UNL4926     0.0000
   4974 C          14.9629   16.7074   21.7667 C.3   4927  UNL4927     0.0000
   4975 C           7.2544   49.9444   66.2012 C.3   4928  UNL4928     0.0000
   4976 C          51.6889   61.1419    0.4506 C.3   4929  UNL4929     0.0000
   4977 C          59.3974    5.5099   44.8851 C.3   4930  UNL4930     0.0000
   4978 C          66.2012   14.9629   61.1419 C.3   4931  UNL4931     0.0000
   4979 C          21.7667    7.2544    5.5099 C.3   4932  UNL4932     0.0000
   4980 C          44.8851   51.6889   16.7074 C.3   4933  UNL4933     0.0000
   4981 C           0.4506   59.3974   49.9444 C.3   4934  UNL4934     0.0000
   4982 C          16.7074   66.2012   59.3974 C.3   4935  UNL4935     0.0000
   4983 C          49.9444   21.7667   51.6889 C.3   4936  UNL4936     0.0000
   4984 C          61.1419   44.8851    7.2544 C.3   4937  UNL4937     0.0000
   4985 C           5.5099    0.4506   14.9629 C.3   4938  UNL4938     0.0000
   4986 C          38.9246   81.6146   22.6678 C.3   4939  UNL4939     0.0000
   4987 C          72.1616   73.9061   67.1023 C.3   4940  UNL4940     0.0000
   4988 C          83.3591   29.4716   43.9839 C.3   4941  UNL4941     0.0000
   4989 C          27.7271   37.1801   88.4184 C.3   4942  UNL4942     0.0000
   4990 C          37.1801   43.9839   72.1616 C.3   4943  UNL4943     0.0000
   4991 C          29.4716   88.4184   38.9246 C.3   4944  UNL4944     0.0000
   4992 C          73.9061   22.6678   27.7271 C.3   4945  UNL4945     0.0000
   4993 C          81.6146   67.1023   83.3591 C.3   4946  UNL4946     0.0000
   4994 C          88.4184   83.3591   73.9061 C.3   4947  UNL4947     0.0000
   4995 C          43.9839   27.7271   81.6146 C.3   4948  UNL4948     0.0000
   4996 C          67.1023   38.9246   37.1801 C.3   4949  UNL4949     0.0000
   4997 C          22.6678   72.1616   29.4716 C.3   4950  UNL4950     0.0000
   4998 C          50.2874    5.8529   68.1305 C.3   4951  UNL4951     0.0000
   4999 C           5.8529   60.7988   42.9557 C.3   4952  UNL4952     0.0000
   5000 C          60.7988   50.2874   87.3902 C.3   4953  UNL4953     0.0000
   5001 C          23.6960   16.3643   16.3643 C.3   4954  UNL4954     0.0000
   5002 C          68.1305   50.2874    5.8529 C.3   4955  UNL4955     0.0000
   5003 C          42.9557    5.8529   60.7988 C.3   4956  UNL4956     0.0000
   5004 C          87.3902   60.7988   50.2874 C.3   4957  UNL4957     0.0000
   5005 C          16.3643   23.6960   16.3643 C.3   4958  UNL4958     0.0000
   5006 C           5.8529   68.1305   50.2874 C.3   4959  UNL4959     0.0000
   5007 C          60.7988   42.9557    5.8529 C.3   4960  UNL4960     0.0000
   5008 C          50.2874   87.3902   60.7988 C.3   4961  UNL4961     0.0000
   5009 C          83.0161   38.5816   20.7385 C.3   4962  UNL4962     0.0000
   5010 C          72.5047   72.5047   65.1730 C.3   4963  UNL4963     0.0000
   5011 C          38.5816   28.0702    1.4788 C.3   4964  UNL4964     0.0000
   5012 C          28.0702   83.0161   45.9133 C.3   4965  UNL4965     0.0000
   5013 C          83.0161   45.9133   28.0702 C.3   4966  UNL4966     0.0000
   5014 C          28.0702    1.4788   38.5816 C.3   4967  UNL4967     0.0000
   5015 C          72.5047   65.1730   72.5047 C.3   4968  UNL4968     0.0000
   5016 C          38.5816   20.7385   83.0161 C.3   4969  UNL4969     0.0000
   5017 C           1.4788   38.5816   28.0702 C.3   4970  UNL4970     0.0000
   5018 C          45.9133   28.0702   83.0161 C.3   4971  UNL4971     0.0000
   5019 C          20.7385   83.0161   38.5816 C.3   4972  UNL4972     0.0000
   5020 C          65.1730   72.5047   72.5047 C.3   4973  UNL4973     0.0000
   5021 C          38.5816   83.0161   20.7385 C.3   4974  UNL4974     0.0000
   5022 C          83.0161   28.0702   45.9133 C.3   4975  UNL4975     0.0000
   5023 C          28.0702   38.5816    1.4788 C.3   4976  UNL4976     0.0000
   5024 C          20.7385   38.5816   83.0161 C.3   4977  UNL4977     0.0000
   5025 C          45.9133   83.0161   28.0702 C.3   4978  UNL4978     0.0000
   5026 C           1.4788   28.0702   38.5816 C.3   4979  UNL4979     0.0000
   5027 C          83.0161   20.7385   38.5816 C.3   4980  UNL4980     0.0000
   5028 C          28.0702   45.9133   83.0161 C.3   4981  UNL4981     0.0000
   5029 C          38.5816    1.4788   28.0702 C.3   4982  UNL4982     0.0000
   5030 C           5.8529   50.2874   68.1305 C.3   4983  UNL4983     0.0000
   5031 C          50.2874   60.7988   87.3902 C.3   4984  UNL4984     0.0000
   5032 C          60.7988    5.8529   42.9557 C.3   4985  UNL4985     0.0000
   5033 C           5.8529   42.9557   60.7988 C.3   4986  UNL4986     0.0000
   5034 C          60.7988   87.3902   50.2874 C.3   4987  UNL4987     0.0000
   5035 C          50.2874   68.1305    5.8529 C.3   4988  UNL4988     0.0000
   5036 C          87.3902   50.2874   60.7988 C.3   4989  UNL4989     0.0000
   5037 C          42.9557   60.7988    5.8529 C.3   4990  UNL4990     0.0000
   5038 C          68.1305    5.8529   50.2874 C.3   4991  UNL4991     0.0000
   5039 C          16.3643   60.7988   68.1305 C.3   4992  UNL4992     0.0000
   5040 C          50.2874   50.2874   23.6960 C.3   4993  UNL4993     0.0000
   5041 C           5.8529   16.3643   87.3902 C.3   4994  UNL4994     0.0000
   5042 C          23.6960   60.7988   60.7988 C.3   4995  UNL4995     0.0000
   5043 C          42.9557   50.2874   16.3643 C.3   4996  UNL4996     0.0000
   5044 C          87.3902   16.3643    5.8529 C.3   4997  UNL4997     0.0000
   5045 C          16.3643   68.1305   60.7988 C.3   4998  UNL4998     0.0000
   5046 C           5.8529   23.6960    5.8529 C.3   4999  UNL4999     0.0000
   5047 C          50.2874   42.9557   16.3643 C.3   5000  UNL5000     0.0000
   5048 C          83.0161   83.0161   65.1730 C.3   5001  UNL5001     0.0000
   5049 C          72.5047   28.0702   20.7385 C.3   5002  UNL5002     0.0000
   5050 C          38.5816   72.5047   45.9133 C.3   5003  UNL5003     0.0000
   5051 C          83.0161    1.4788   72.5047 C.3   5004  UNL5004     0.0000
   5052 C          72.5047   20.7385   28.0702 C.3   5005  UNL5005     0.0000
   5053 C          38.5816   65.1730   38.5816 C.3   5006  UNL5006     0.0000
   5054 C           1.4788   83.0161   72.5047 C.3   5007  UNL5007     0.0000
   5055 C          45.9133   72.5047   38.5816 C.3   5008  UNL5008     0.0000
   5056 C          65.1730   28.0702   28.0702 C.3   5009  UNL5009     0.0000
   5057 C          38.5816   38.5816   65.1730 C.3   5010  UNL5010     0.0000
   5058 C          83.0161   72.5047    1.4788 C.3   5011  UNL5011     0.0000
   5059 C          45.9133   38.5816   72.5047 C.3   5012  UNL5012     0.0000
   5060 C           1.4788   72.5047   83.0161 C.3   5013  UNL5013     0.0000
   5061 C          83.0161   65.1730   83.0161 C.3   5014  UNL5014     0.0000
   5062 C          38.5816   45.9133   72.5047 C.3   5015  UNL5015     0.0000
   5063 C           5.8529    5.8529   23.6960 C.3   5016  UNL5016     0.0000
   5064 C          50.2874   16.3643   42.9557 C.3   5017  UNL5017     0.0000
   5065 C           5.8529   87.3902   16.3643 C.3   5018  UNL5018     0.0000
   5066 C          50.2874   23.6960   50.2874 C.3   5019  UNL5019     0.0000
   5067 C          87.3902    5.8529   16.3643 C.3   5020  UNL5020     0.0000
   5068 C          42.9557   16.3643   50.2874 C.3   5021  UNL5021     0.0000
   5069 C          60.7988   16.3643   68.1305 C.3   5022  UNL5022     0.0000
   5070 C          16.3643   50.2874   42.9557 C.3   5023  UNL5023     0.0000
   5071 C          68.1305   16.3643   60.7988 C.3   5024  UNL5024     0.0000
   5072 C          23.6960   50.2874   50.2874 C.3   5025  UNL5025     0.0000
   5073 C          60.7988   23.6960   60.7988 C.3   5026  UNL5026     0.0000
   5074 C          16.3643   42.9557   50.2874 C.3   5027  UNL5027     0.0000
   5075 C          28.0702   72.5047   20.7385 C.3   5028  UNL5028     0.0000
   5076 C          72.5047   83.0161    1.4788 C.3   5029  UNL5029     0.0000
   5077 C          72.5047    1.4788   83.0161 C.3   5030  UNL5030     0.0000
   5078 C          28.0702   65.1730   28.0702 C.3   5031  UNL5031     0.0000
   5079 C          65.1730   83.0161   83.0161 C.3   5032  UNL5032     0.0000
   5080 C          20.7385   72.5047   28.0702 C.3   5033  UNL5033     0.0000
   5081 C          72.5047   38.5816   45.9133 C.3   5034  UNL5034     0.0000
   5082 C          65.1730   38.5816   38.5816 C.3   5035  UNL5035     0.0000
   5083 C          72.5047   45.9133   38.5816 C.3   5036  UNL5036     0.0000
   5084 C          16.3643    5.8529   87.3902 C.3   5037  UNL5037     0.0000
   5085 C          16.3643   87.3902    5.8529 C.3   5038  UNL5038     0.0000
   5086 C          23.6960    5.8529    5.8529 C.3   5039  UNL5039     0.0000
   5087 C          60.7988   60.7988   23.6960 C.3   5040  UNL5040     0.0000
   5088 C          68.1305   60.7988   16.3643 C.3   5041  UNL5041     0.0000
   5089 C          60.7988   68.1305   16.3643 C.3   5042  UNL5042     0.0000
   5090 C          28.0702   28.0702   65.1730 C.3   5043  UNL5043     0.0000
   5091 C          28.0702   20.7385   72.5047 C.3   5044  UNL5044     0.0000
   5092 C          20.7385   28.0702   72.5047 C.3   5045  UNL5045     0.0000
   5093 C          50.7842    6.3497   66.9166 C.3   5046  UNL5046     0.0000
   5094 C           6.3497   60.3021   44.1697 C.3   5047  UNL5047     0.0000
   5095 C          60.3021   50.7842   88.6042 C.3   5048  UNL5048     0.0000
   5096 C          22.4821   15.8676   15.8676 C.3   5049  UNL5049     0.0000
   5097 C          66.9166   50.7842    6.3497 C.3   5050  UNL5050     0.0000
   5098 C          44.1697    6.3497   60.3021 C.3   5051  UNL5051     0.0000
   5099 C          88.6042   60.3021   50.7842 C.3   5052  UNL5052     0.0000
   5100 C          15.8676   22.4821   15.8676 C.3   5053  UNL5053     0.0000
   5101 C           6.3497   66.9166   50.7842 C.3   5054  UNL5054     0.0000
   5102 C          60.3021   44.1697    6.3497 C.3   5055  UNL5055     0.0000
   5103 C          50.7842   88.6042   60.3021 C.3   5056  UNL5056     0.0000
   5104 C          82.5193   38.0848   21.9524 C.3   5057  UNL5057     0.0000
   5105 C          73.0014   73.0014   66.3869 C.3   5058  UNL5058     0.0000
   5106 C          38.0848   28.5669    0.2648 C.3   5059  UNL5059     0.0000
   5107 C          28.5669   82.5193   44.6993 C.3   5060  UNL5060     0.0000
   5108 C          82.5193   44.6993   28.5669 C.3   5061  UNL5061     0.0000
   5109 C          28.5669    0.2648   38.0848 C.3   5062  UNL5062     0.0000
   5110 C          73.0014   66.3869   73.0014 C.3   5063  UNL5063     0.0000
   5111 C          38.0848   21.9524   82.5193 C.3   5064  UNL5064     0.0000
   5112 C           0.2648   38.0848   28.5669 C.3   5065  UNL5065     0.0000
   5113 C          44.6993   28.5669   82.5193 C.3   5066  UNL5066     0.0000
   5114 C          21.9524   82.5193   38.0848 C.3   5067  UNL5067     0.0000
   5115 C          66.3869   73.0014   73.0014 C.3   5068  UNL5068     0.0000
   5116 C          38.0848   82.5193   21.9524 C.3   5069  UNL5069     0.0000
   5117 C          82.5193   28.5669   44.6993 C.3   5070  UNL5070     0.0000
   5118 C          28.5669   38.0848    0.2648 C.3   5071  UNL5071     0.0000
   5119 C          21.9524   38.0848   82.5193 C.3   5072  UNL5072     0.0000
   5120 C          44.6993   82.5193   28.5669 C.3   5073  UNL5073     0.0000
   5121 C           0.2648   28.5669   38.0848 C.3   5074  UNL5074     0.0000
   5122 C          82.5193   21.9524   38.0848 C.3   5075  UNL5075     0.0000
   5123 C          28.5669   44.6993   82.5193 C.3   5076  UNL5076     0.0000
   5124 C          38.0848    0.2648   28.5669 C.3   5077  UNL5077     0.0000
   5125 C           6.3497   50.7842   66.9166 C.3   5078  UNL5078     0.0000
   5126 C          50.7842   60.3021   88.6042 C.3   5079  UNL5079     0.0000
   5127 C          60.3021    6.3497   44.1697 C.3   5080  UNL5080     0.0000
   5128 C           6.3497   44.1697   60.3021 C.3   5081  UNL5081     0.0000
   5129 C          60.3021   88.6042   50.7842 C.3   5082  UNL5082     0.0000
   5130 C          50.7842   66.9166    6.3497 C.3   5083  UNL5083     0.0000
   5131 C          88.6042   50.7842   60.3021 C.3   5084  UNL5084     0.0000
   5132 C          44.1697   60.3021    6.3497 C.3   5085  UNL5085     0.0000
   5133 C          66.9166    6.3497   50.7842 C.3   5086  UNL5086     0.0000
   5134 C          15.8676   60.3021   66.9166 C.3   5087  UNL5087     0.0000
   5135 C          50.7842   50.7842   22.4821 C.3   5088  UNL5088     0.0000
   5136 C           6.3497   15.8676   88.6042 C.3   5089  UNL5089     0.0000
   5137 C          22.4821   60.3021   60.3021 C.3   5090  UNL5090     0.0000
   5138 C          44.1697   50.7842   15.8676 C.3   5091  UNL5091     0.0000
   5139 C          88.6042   15.8676    6.3497 C.3   5092  UNL5092     0.0000
   5140 C          15.8676   66.9166   60.3021 C.3   5093  UNL5093     0.0000
   5141 C           6.3497   22.4821    6.3497 C.3   5094  UNL5094     0.0000
   5142 C          50.7842   44.1697   15.8676 C.3   5095  UNL5095     0.0000
   5143 C          82.5193   82.5193   66.3869 C.3   5096  UNL5096     0.0000
   5144 C          73.0014   28.5669   21.9524 C.3   5097  UNL5097     0.0000
   5145 C          38.0848   73.0014   44.6993 C.3   5098  UNL5098     0.0000
   5146 C          82.5193    0.2648   73.0014 C.3   5099  UNL5099     0.0000
   5147 C          73.0014   21.9524   28.5669 C.3   5100  UNL5100     0.0000
   5148 C          38.0848   66.3869   38.0848 C.3   5101  UNL5101     0.0000
   5149 C           0.2648   82.5193   73.0014 C.3   5102  UNL5102     0.0000
   5150 C          44.6993   73.0014   38.0848 C.3   5103  UNL5103     0.0000
   5151 C          66.3869   28.5669   28.5669 C.3   5104  UNL5104     0.0000
   5152 C          38.0848   38.0848   66.3869 C.3   5105  UNL5105     0.0000
   5153 C          82.5193   73.0014    0.2648 C.3   5106  UNL5106     0.0000
   5154 C          44.6993   38.0848   73.0014 C.3   5107  UNL5107     0.0000
   5155 C           0.2648   73.0014   82.5193 C.3   5108  UNL5108     0.0000
   5156 C          82.5193   66.3869   82.5193 C.3   5109  UNL5109     0.0000
   5157 C          38.0848   44.6993   73.0014 C.3   5110  UNL5110     0.0000
   5158 C           6.3497    6.3497   22.4821 C.3   5111  UNL5111     0.0000
   5159 C          50.7842   15.8676   44.1697 C.3   5112  UNL5112     0.0000
   5160 C           6.3497   88.6042   15.8676 C.3   5113  UNL5113     0.0000
   5161 C          50.7842   22.4821   50.7842 C.3   5114  UNL5114     0.0000
   5162 C          88.6042    6.3497   15.8676 C.3   5115  UNL5115     0.0000
   5163 C          44.1697   15.8676   50.7842 C.3   5116  UNL5116     0.0000
   5164 C          60.3021   15.8676   66.9166 C.3   5117  UNL5117     0.0000
   5165 C          15.8676   50.7842   44.1697 C.3   5118  UNL5118     0.0000
   5166 C          66.9166   15.8676   60.3021 C.3   5119  UNL5119     0.0000
   5167 C          22.4821   50.7842   50.7842 C.3   5120  UNL5120     0.0000
   5168 C          60.3021   22.4821   60.3021 C.3   5121  UNL5121     0.0000
   5169 C          15.8676   44.1697   50.7842 C.3   5122  UNL5122     0.0000
   5170 C          28.5669   73.0014   21.9524 C.3   5123  UNL5123     0.0000
   5171 C          73.0014   82.5193    0.2648 C.3   5124  UNL5124     0.0000
   5172 C          73.0014    0.2648   82.5193 C.3   5125  UNL5125     0.0000
   5173 C          28.5669   66.3869   28.5669 C.3   5126  UNL5126     0.0000
   5174 C          66.3869   82.5193   82.5193 C.3   5127  UNL5127     0.0000
   5175 C          21.9524   73.0014   28.5669 C.3   5128  UNL5128     0.0000
   5176 C          73.0014   38.0848   44.6993 C.3   5129  UNL5129     0.0000
   5177 C          66.3869   38.0848   38.0848 C.3   5130  UNL5130     0.0000
   5178 C          73.0014   44.6993   38.0848 C.3   5131  UNL5131     0.0000
   5179 C          15.8676    6.3497   88.6042 C.3   5132  UNL5132     0.0000
   5180 C          15.8676   88.6042    6.3497 C.3   5133  UNL5133     0.0000
   5181 C          22.4821    6.3497    6.3497 C.3   5134  UNL5134     0.0000
   5182 C          60.3021   60.3021   22.4821 C.3   5135  UNL5135     0.0000
   5183 C          66.9166   60.3021   15.8676 C.3   5136  UNL5136     0.0000
   5184 C          60.3021   66.9166   15.8676 C.3   5137  UNL5137     0.0000
   5185 C          28.5669   28.5669   66.3869 C.3   5138  UNL5138     0.0000
   5186 C          28.5669   21.9524   73.0014 C.3   5139  UNL5139     0.0000
   5187 C          21.9524   28.5669   73.0014 C.3   5140  UNL5140     0.0000
   5188 C          36.8753   83.0658   24.0408 C.3   5141  UNL5141     0.0000
   5189 C          81.3098   72.4549   87.0454 C.3   5142  UNL5142     0.0000
   5190 C          74.2109   38.6313   42.6109 C.3   5143  UNL5143     0.0000
   5191 C          68.4753   29.7764   28.0204 C.3   5144  UNL5144     0.0000
   5192 C          24.0408   36.8753   83.0658 C.3   5145  UNL5145     0.0000
   5193 C          87.0454   81.3098   72.4549 C.3   5146  UNL5146     0.0000
   5194 C          42.6109   74.2109   38.6313 C.3   5147  UNL5147     0.0000
   5195 C          28.0204   68.4753   29.7764 C.3   5148  UNL5148     0.0000
   5196 C          83.0658   24.0408   36.8753 C.3   5149  UNL5149     0.0000
   5197 C          72.4549   87.0454   81.3098 C.3   5150  UNL5150     0.0000
   5198 C          38.6313   42.6109   74.2109 C.3   5151  UNL5151     0.0000
   5199 C           5.8031   51.9937   64.8282 C.3   5152  UNL5152     0.0000
   5200 C          60.8486   59.0925   20.3937 C.3   5153  UNL5153     0.0000
   5201 C          50.2376   14.6581   46.2581 C.3   5154  UNL5154     0.0000
   5202 C          16.4141    7.5592    1.8236 C.3   5155  UNL5155     0.0000
   5203 C           7.5592    1.8236   16.4141 C.3   5156  UNL5156     0.0000
   5204 C          14.6581   46.2581   50.2376 C.3   5157  UNL5157     0.0000
   5205 C          59.0925   20.3937   60.8486 C.3   5158  UNL5158     0.0000
   5206 C          51.9937   64.8282    5.8031 C.3   5159  UNL5159     0.0000
   5207 C          46.2581   50.2376   14.6581 C.3   5160  UNL5160     0.0000
   5208 C           1.8236   16.4141    7.5592 C.3   5161  UNL5161     0.0000
   5209 C          64.8282    5.8031   51.9937 C.3   5162  UNL5162     0.0000
   5210 C          20.3937   60.8486   59.0925 C.3   5163  UNL5163     0.0000
   5211 C          59.0925   60.8486   20.3937 C.3   5164  UNL5164     0.0000
   5212 C          51.9937    5.8031   64.8282 C.3   5165  UNL5165     0.0000
   5213 C           7.5592   16.4141    1.8236 C.3   5166  UNL5166     0.0000
   5214 C          14.6581   50.2376   46.2581 C.3   5167  UNL5167     0.0000
   5215 C          20.3937   59.0925   60.8486 C.3   5168  UNL5168     0.0000
   5216 C          64.8282   51.9937    5.8031 C.3   5169  UNL5169     0.0000
   5217 C           1.8236    7.5592   16.4141 C.3   5170  UNL5170     0.0000
   5218 C          46.2581   14.6581   50.2376 C.3   5171  UNL5171     0.0000
   5219 C          60.8486   20.3937   59.0925 C.3   5172  UNL5172     0.0000
   5220 C           5.8031   64.8282   51.9937 C.3   5173  UNL5173     0.0000
   5221 C          16.4141    1.8236    7.5592 C.3   5174  UNL5174     0.0000
   5222 C          50.2376   46.2581   14.6581 C.3   5175  UNL5175     0.0000
   5223 C          83.0658   36.8753   24.0408 C.3   5176  UNL5176     0.0000
   5224 C          28.0204   29.7764   68.4753 C.3   5177  UNL5177     0.0000
   5225 C          38.6313   74.2109   42.6109 C.3   5178  UNL5178     0.0000
   5226 C          72.4549   81.3098   87.0454 C.3   5179  UNL5179     0.0000
   5227 C          81.3098   87.0454   72.4549 C.3   5180  UNL5180     0.0000
   5228 C          74.2109   42.6109   38.6313 C.3   5181  UNL5181     0.0000
   5229 C          29.7764   68.4753   28.0204 C.3   5182  UNL5182     0.0000
   5230 C          36.8753   24.0408   83.0658 C.3   5183  UNL5183     0.0000
   5231 C          42.6109   38.6313   74.2109 C.3   5184  UNL5184     0.0000
   5232 C          87.0454   72.4549   81.3098 C.3   5185  UNL5185     0.0000
   5233 C          24.0408   83.0658   36.8753 C.3   5186  UNL5186     0.0000
   5234 C          68.4753   28.0204   29.7764 C.3   5187  UNL5187     0.0000
   5235 C          29.7764   72.4549   24.0408 C.3   5188  UNL5188     0.0000
   5236 C          36.8753   38.6313   68.4753 C.3   5189  UNL5189     0.0000
   5237 C          81.3098   28.0204   42.6109 C.3   5190  UNL5190     0.0000
   5238 C          74.2109   83.0658   87.0454 C.3   5191  UNL5191     0.0000
   5239 C          68.4753   74.2109   72.4549 C.3   5192  UNL5192     0.0000
   5240 C          24.0408   81.3098   38.6313 C.3   5193  UNL5193     0.0000
   5241 C          87.0454   36.8753   28.0204 C.3   5194  UNL5194     0.0000
   5242 C          42.6109   29.7764   83.0658 C.3   5195  UNL5195     0.0000
   5243 C          28.0204   24.0408   74.2109 C.3   5196  UNL5196     0.0000
   5244 C          83.0658   68.4753   81.3098 C.3   5197  UNL5197     0.0000
   5245 C          72.4549   42.6109   36.8753 C.3   5198  UNL5198     0.0000
   5246 C          38.6313   87.0454   29.7764 C.3   5199  UNL5199     0.0000
   5247 C           5.8031    7.5592   20.3937 C.3   5200  UNL5200     0.0000
   5248 C          60.8486   14.6581   64.8282 C.3   5201  UNL5201     0.0000
   5249 C          50.2376   59.0925    1.8236 C.3   5202  UNL5202     0.0000
   5250 C          16.4141   51.9937   46.2581 C.3   5203  UNL5203     0.0000
   5251 C           7.5592   46.2581   60.8486 C.3   5204  UNL5204     0.0000
   5252 C          14.6581    1.8236    5.8031 C.3   5205  UNL5205     0.0000
   5253 C          59.0925   64.8282   16.4141 C.3   5206  UNL5206     0.0000
   5254 C          51.9937   20.3937   50.2376 C.3   5207  UNL5207     0.0000
   5255 C          46.2581    5.8031   59.0925 C.3   5208  UNL5208     0.0000
   5256 C           1.8236   60.8486   51.9937 C.3   5209  UNL5209     0.0000
   5257 C          64.8282   50.2376    7.5592 C.3   5210  UNL5210     0.0000
   5258 C          20.3937   16.4141   14.6581 C.3   5211  UNL5211     0.0000
   5259 C          59.0925   16.4141   64.8282 C.3   5212  UNL5212     0.0000
   5260 C          51.9937   50.2376   20.3937 C.3   5213  UNL5213     0.0000
   5261 C           7.5592   60.8486   46.2581 C.3   5214  UNL5214     0.0000
   5262 C          14.6581    5.8031    1.8236 C.3   5215  UNL5215     0.0000
   5263 C          20.3937   14.6581   16.4141 C.3   5216  UNL5216     0.0000
   5264 C          64.8282    7.5592   50.2376 C.3   5217  UNL5217     0.0000
   5265 C           1.8236   51.9937   60.8486 C.3   5218  UNL5218     0.0000
   5266 C          46.2581   59.0925    5.8031 C.3   5219  UNL5219     0.0000
   5267 C          60.8486   64.8282   14.6581 C.3   5220  UNL5220     0.0000
   5268 C           5.8031   20.3937    7.5592 C.3   5221  UNL5221     0.0000
   5269 C          16.4141   46.2581   51.9937 C.3   5222  UNL5222     0.0000
   5270 C          50.2376    1.8236   59.0925 C.3   5223  UNL5223     0.0000
   5271 C          83.0658   81.3098   68.4753 C.3   5224  UNL5224     0.0000
   5272 C          28.0204   74.2109   24.0408 C.3   5225  UNL5225     0.0000
   5273 C          38.6313   29.7764   87.0454 C.3   5226  UNL5226     0.0000
   5274 C          72.4549   36.8753   42.6109 C.3   5227  UNL5227     0.0000
   5275 C          81.3098   42.6109   28.0204 C.3   5228  UNL5228     0.0000
   5276 C          74.2109   87.0454   83.0658 C.3   5229  UNL5229     0.0000
   5277 C          29.7764   24.0408   72.4549 C.3   5230  UNL5230     0.0000
   5278 C          36.8753   68.4753   38.6313 C.3   5231  UNL5231     0.0000
   5279 C          42.6109   83.0658   29.7764 C.3   5232  UNL5232     0.0000
   5280 C          87.0454   28.0204   36.8753 C.3   5233  UNL5233     0.0000
   5281 C          24.0408   38.6313   81.3098 C.3   5234  UNL5234     0.0000
   5282 C          68.4753   72.4549   74.2109 C.3   5235  UNL5235     0.0000
   5283 C          74.2109   28.0204   24.0408 C.3   5236  UNL5236     0.0000
   5284 C          81.3098   83.0658   68.4753 C.3   5237  UNL5237     0.0000
   5285 C          36.8753   72.4549   42.6109 C.3   5238  UNL5238     0.0000
   5286 C          29.7764   38.6313   87.0454 C.3   5239  UNL5239     0.0000
   5287 C          24.0408   29.7764   72.4549 C.3   5240  UNL5240     0.0000
   5288 C          68.4753   36.8753   38.6313 C.3   5241  UNL5241     0.0000
   5289 C          42.6109   81.3098   28.0204 C.3   5242  UNL5242     0.0000
   5290 C          87.0454   74.2109   83.0658 C.3   5243  UNL5243     0.0000
   5291 C          72.4549   68.4753   74.2109 C.3   5244  UNL5244     0.0000
   5292 C          38.6313   24.0408   81.3098 C.3   5245  UNL5245     0.0000
   5293 C          28.0204   87.0454   36.8753 C.3   5246  UNL5246     0.0000
   5294 C          83.0658   42.6109   29.7764 C.3   5247  UNL5247     0.0000
   5295 C          50.2376   51.9937   20.3937 C.3   5248  UNL5248     0.0000
   5296 C          16.4141   59.0925   64.8282 C.3   5249  UNL5249     0.0000
   5297 C           5.8031   14.6581    1.8236 C.3   5250  UNL5250     0.0000
   5298 C          60.8486    7.5592   46.2581 C.3   5251  UNL5251     0.0000
   5299 C          51.9937    1.8236   60.8486 C.3   5252  UNL5252     0.0000
   5300 C          59.0925   46.2581    5.8031 C.3   5253  UNL5253     0.0000
   5301 C          14.6581   20.3937   16.4141 C.3   5254  UNL5254     0.0000
   5302 C           7.5592   64.8282   50.2376 C.3   5255  UNL5255     0.0000
   5303 C           1.8236   50.2376   59.0925 C.3   5256  UNL5256     0.0000
   5304 C          46.2581   16.4141   51.9937 C.3   5257  UNL5257     0.0000
   5305 C          20.3937    5.8031    7.5592 C.3   5258  UNL5258     0.0000
   5306 C          64.8282   60.8486   14.6581 C.3   5259  UNL5259     0.0000
   5307 C          14.6581   60.8486   64.8282 C.3   5260  UNL5260     0.0000
   5308 C           7.5592    5.8031   20.3937 C.3   5261  UNL5261     0.0000
   5309 C          51.9937   16.4141   46.2581 C.3   5262  UNL5262     0.0000
   5310 C          59.0925   50.2376    1.8236 C.3   5263  UNL5263     0.0000
   5311 C          64.8282   59.0925   16.4141 C.3   5264  UNL5264     0.0000
   5312 C          20.3937   51.9937   50.2376 C.3   5265  UNL5265     0.0000
   5313 C          46.2581    7.5592   60.8486 C.3   5266  UNL5266     0.0000
   5314 C           1.8236   14.6581    5.8031 C.3   5267  UNL5267     0.0000
   5315 C          16.4141   20.3937   14.6581 C.3   5268  UNL5268     0.0000
   5316 C          50.2376   64.8282    7.5592 C.3   5269  UNL5269     0.0000
   5317 C          60.8486    1.8236   51.9937 C.3   5270  UNL5270     0.0000
   5318 C           5.8031   46.2581   59.0925 C.3   5271  UNL5271     0.0000
   5319 C          38.6313   36.8753   68.4753 C.3   5272  UNL5272     0.0000
   5320 C          72.4549   29.7764   24.0408 C.3   5273  UNL5273     0.0000
   5321 C          83.0658   74.2109   87.0454 C.3   5274  UNL5274     0.0000
   5322 C          28.0204   81.3098   42.6109 C.3   5275  UNL5275     0.0000
   5323 C          36.8753   87.0454   28.0204 C.3   5276  UNL5276     0.0000
   5324 C          29.7764   42.6109   83.0658 C.3   5277  UNL5277     0.0000
   5325 C          74.2109   68.4753   72.4549 C.3   5278  UNL5278     0.0000
   5326 C          81.3098   24.0408   38.6313 C.3   5279  UNL5279     0.0000
   5327 C          87.0454   38.6313   29.7764 C.3   5280  UNL5280     0.0000
   5328 C          42.6109   72.4549   36.8753 C.3   5281  UNL5281     0.0000
   5329 C          68.4753   83.0658   81.3098 C.3   5282  UNL5282     0.0000
   5330 C          24.0408   28.0204   74.2109 C.3   5283  UNL5283     0.0000
   5331 C          74.2109   72.4549   68.4753 C.3   5284  UNL5284     0.0000
   5332 C          81.3098   38.6313   24.0408 C.3   5285  UNL5285     0.0000
   5333 C          36.8753   28.0204   87.0454 C.3   5286  UNL5286     0.0000
   5334 C          29.7764   83.0658   42.6109 C.3   5287  UNL5287     0.0000
   5335 C          24.0408   74.2109   28.0204 C.3   5288  UNL5288     0.0000
   5336 C          68.4753   81.3098   83.0658 C.3   5289  UNL5289     0.0000
   5337 C          42.6109   36.8753   72.4549 C.3   5290  UNL5290     0.0000
   5338 C          87.0454   29.7764   38.6313 C.3   5291  UNL5291     0.0000
   5339 C          72.4549   24.0408   29.7764 C.3   5292  UNL5292     0.0000
   5340 C          38.6313   68.4753   36.8753 C.3   5293  UNL5293     0.0000
   5341 C          28.0204   42.6109   81.3098 C.3   5294  UNL5294     0.0000
   5342 C          83.0658   87.0454   74.2109 C.3   5295  UNL5295     0.0000
   5343 C          50.2376    7.5592   64.8282 C.3   5296  UNL5296     0.0000
   5344 C          16.4141   14.6581   20.3937 C.3   5297  UNL5297     0.0000
   5345 C           5.8031   59.0925   46.2581 C.3   5298  UNL5298     0.0000
   5346 C          60.8486   51.9937    1.8236 C.3   5299  UNL5299     0.0000
   5347 C          51.9937   46.2581   16.4141 C.3   5300  UNL5300     0.0000
   5348 C          59.0925    1.8236   50.2376 C.3   5301  UNL5301     0.0000
   5349 C          14.6581   64.8282   60.8486 C.3   5302  UNL5302     0.0000
   5350 C           7.5592   20.3937    5.8031 C.3   5303  UNL5303     0.0000
   5351 C           1.8236    5.8031   14.6581 C.3   5304  UNL5304     0.0000
   5352 C          46.2581   60.8486    7.5592 C.3   5305  UNL5305     0.0000
   5353 C          20.3937   50.2376   51.9937 C.3   5306  UNL5306     0.0000
   5354 C          64.8282   16.4141   59.0925 C.3   5307  UNL5307     0.0000
   5355 C          14.6581   16.4141   20.3937 C.3   5308  UNL5308     0.0000
   5356 C           7.5592   50.2376   64.8282 C.3   5309  UNL5309     0.0000
   5357 C          51.9937   60.8486    1.8236 C.3   5310  UNL5310     0.0000
   5358 C          59.0925    5.8031   46.2581 C.3   5311  UNL5311     0.0000
   5359 C          64.8282   14.6581   60.8486 C.3   5312  UNL5312     0.0000
   5360 C          20.3937    7.5592    5.8031 C.3   5313  UNL5313     0.0000
   5361 C          46.2581   51.9937   16.4141 C.3   5314  UNL5314     0.0000
   5362 C           1.8236   59.0925   50.2376 C.3   5315  UNL5315     0.0000
   5363 C          16.4141   64.8282   59.0925 C.3   5316  UNL5316     0.0000
   5364 C          50.2376   20.3937   51.9937 C.3   5317  UNL5317     0.0000
   5365 C          60.8486   46.2581    7.5592 C.3   5318  UNL5318     0.0000
   5366 C           5.8031    1.8236   14.6581 C.3   5319  UNL5319     0.0000
   5367 C          38.6313   81.3098   24.0408 C.3   5320  UNL5320     0.0000
   5368 C          72.4549   74.2109   68.4753 C.3   5321  UNL5321     0.0000
   5369 C          83.0658   29.7764   42.6109 C.3   5322  UNL5322     0.0000
   5370 C          28.0204   36.8753   87.0454 C.3   5323  UNL5323     0.0000
   5371 C          36.8753   42.6109   72.4549 C.3   5324  UNL5324     0.0000
   5372 C          29.7764   87.0454   38.6313 C.3   5325  UNL5325     0.0000
   5373 C          74.2109   24.0408   28.0204 C.3   5326  UNL5326     0.0000
   5374 C          81.3098   68.4753   83.0658 C.3   5327  UNL5327     0.0000
   5375 C          87.0454   83.0658   74.2109 C.3   5328  UNL5328     0.0000
   5376 C          42.6109   28.0204   81.3098 C.3   5329  UNL5329     0.0000
   5377 C          68.4753   38.6313   36.8753 C.3   5330  UNL5330     0.0000
   5378 C          24.0408   72.4549   29.7764 C.3   5331  UNL5331     0.0000
   5379 C          51.4703    7.0358   62.7646 C.3   5332  UNL5332     0.0000
   5380 C           7.0358   59.6160   48.3216 C.3   5333  UNL5333     0.0000
   5381 C          59.6160   51.4703    3.8871 C.3   5334  UNL5334     0.0000
   5382 C          18.3301   15.1815   15.1815 C.3   5335  UNL5335     0.0000
   5383 C          62.7646   51.4703    7.0358 C.3   5336  UNL5336     0.0000
   5384 C          48.3216    7.0358   59.6160 C.3   5337  UNL5337     0.0000
   5385 C           3.8871   59.6160   51.4703 C.3   5338  UNL5338     0.0000
   5386 C          15.1815   18.3301   15.1815 C.3   5339  UNL5339     0.0000
   5387 C           7.0358   62.7646   51.4703 C.3   5340  UNL5340     0.0000
   5388 C          59.6160   48.3216    7.0358 C.3   5341  UNL5341     0.0000
   5389 C          51.4703    3.8871   59.6160 C.3   5342  UNL5342     0.0000
   5390 C          81.8332   37.3987   26.1044 C.3   5343  UNL5343     0.0000
   5391 C          73.6875   73.6875   70.5389 C.3   5344  UNL5344     0.0000
   5392 C          37.3987   29.2530   84.9819 C.3   5345  UNL5345     0.0000
   5393 C          29.2530   81.8332   40.5474 C.3   5346  UNL5346     0.0000
   5394 C          81.8332   40.5474   29.2530 C.3   5347  UNL5347     0.0000
   5395 C          29.2530   84.9819   37.3987 C.3   5348  UNL5348     0.0000
   5396 C          73.6875   70.5389   73.6875 C.3   5349  UNL5349     0.0000
   5397 C          37.3987   26.1044   81.8332 C.3   5350  UNL5350     0.0000
   5398 C          84.9819   37.3987   29.2530 C.3   5351  UNL5351     0.0000
   5399 C          40.5474   29.2530   81.8332 C.3   5352  UNL5352     0.0000
   5400 C          26.1044   81.8332   37.3987 C.3   5353  UNL5353     0.0000
   5401 C          70.5389   73.6875   73.6875 C.3   5354  UNL5354     0.0000
   5402 C          37.3987   81.8332   26.1044 C.3   5355  UNL5355     0.0000
   5403 C          81.8332   29.2530   40.5474 C.3   5356  UNL5356     0.0000
   5404 C          29.2530   37.3987   84.9819 C.3   5357  UNL5357     0.0000
   5405 C          26.1044   37.3987   81.8332 C.3   5358  UNL5358     0.0000
   5406 C          40.5474   81.8332   29.2530 C.3   5359  UNL5359     0.0000
   5407 C          84.9819   29.2530   37.3987 C.3   5360  UNL5360     0.0000
   5408 C          81.8332   26.1044   37.3987 C.3   5361  UNL5361     0.0000
   5409 C          29.2530   40.5474   81.8332 C.3   5362  UNL5362     0.0000
   5410 C          37.3987   84.9819   29.2530 C.3   5363  UNL5363     0.0000
   5411 C           7.0358   51.4703   62.7646 C.3   5364  UNL5364     0.0000
   5412 C          51.4703   59.6160    3.8871 C.3   5365  UNL5365     0.0000
   5413 C          59.6160    7.0358   48.3216 C.3   5366  UNL5366     0.0000
   5414 C           7.0358   48.3216   59.6160 C.3   5367  UNL5367     0.0000
   5415 C          59.6160    3.8871   51.4703 C.3   5368  UNL5368     0.0000
   5416 C          51.4703   62.7646    7.0358 C.3   5369  UNL5369     0.0000
   5417 C           3.8871   51.4703   59.6160 C.3   5370  UNL5370     0.0000
   5418 C          48.3216   59.6160    7.0358 C.3   5371  UNL5371     0.0000
   5419 C          62.7646    7.0358   51.4703 C.3   5372  UNL5372     0.0000
   5420 C          15.1815   59.6160   62.7646 C.3   5373  UNL5373     0.0000
   5421 C          51.4703   51.4703   18.3301 C.3   5374  UNL5374     0.0000
   5422 C           7.0358   15.1815    3.8871 C.3   5375  UNL5375     0.0000
   5423 C          18.3301   59.6160   59.6160 C.3   5376  UNL5376     0.0000
   5424 C          48.3216   51.4703   15.1815 C.3   5377  UNL5377     0.0000
   5425 C           3.8871   15.1815    7.0358 C.3   5378  UNL5378     0.0000
   5426 C          15.1815   62.7646   59.6160 C.3   5379  UNL5379     0.0000
   5427 C           7.0358   18.3301    7.0358 C.3   5380  UNL5380     0.0000
   5428 C          51.4703   48.3216   15.1815 C.3   5381  UNL5381     0.0000
   5429 C          81.8332   81.8332   70.5389 C.3   5382  UNL5382     0.0000
   5430 C          73.6875   29.2530   26.1044 C.3   5383  UNL5383     0.0000
   5431 C          37.3987   73.6875   40.5474 C.3   5384  UNL5384     0.0000
   5432 C          81.8332   84.9819   73.6875 C.3   5385  UNL5385     0.0000
   5433 C          73.6875   26.1044   29.2530 C.3   5386  UNL5386     0.0000
   5434 C          37.3987   70.5389   37.3987 C.3   5387  UNL5387     0.0000
   5435 C          84.9819   81.8332   73.6875 C.3   5388  UNL5388     0.0000
   5436 C          40.5474   73.6875   37.3987 C.3   5389  UNL5389     0.0000
   5437 C          70.5389   29.2530   29.2530 C.3   5390  UNL5390     0.0000
   5438 C          37.3987   37.3987   70.5389 C.3   5391  UNL5391     0.0000
   5439 C          81.8332   73.6875   84.9819 C.3   5392  UNL5392     0.0000
   5440 C          40.5474   37.3987   73.6875 C.3   5393  UNL5393     0.0000
   5441 C          84.9819   73.6875   81.8332 C.3   5394  UNL5394     0.0000
   5442 C          81.8332   70.5389   81.8332 C.3   5395  UNL5395     0.0000
   5443 C          37.3987   40.5474   73.6875 C.3   5396  UNL5396     0.0000
   5444 C           7.0358    7.0358   18.3301 C.3   5397  UNL5397     0.0000
   5445 C          51.4703   15.1815   48.3216 C.3   5398  UNL5398     0.0000
   5446 C           7.0358    3.8871   15.1815 C.3   5399  UNL5399     0.0000
   5447 C          51.4703   18.3301   51.4703 C.3   5400  UNL5400     0.0000
   5448 C           3.8871    7.0358   15.1815 C.3   5401  UNL5401     0.0000
   5449 C          48.3216   15.1815   51.4703 C.3   5402  UNL5402     0.0000
   5450 C          59.6160   15.1815   62.7646 C.3   5403  UNL5403     0.0000
   5451 C          15.1815   51.4703   48.3216 C.3   5404  UNL5404     0.0000
   5452 C          62.7646   15.1815   59.6160 C.3   5405  UNL5405     0.0000
   5453 C          18.3301   51.4703   51.4703 C.3   5406  UNL5406     0.0000
   5454 C          59.6160   18.3301   59.6160 C.3   5407  UNL5407     0.0000
   5455 C          15.1815   48.3216   51.4703 C.3   5408  UNL5408     0.0000
   5456 C          29.2530   73.6875   26.1044 C.3   5409  UNL5409     0.0000
   5457 C          73.6875   81.8332   84.9819 C.3   5410  UNL5410     0.0000
   5458 C          73.6875   84.9819   81.8332 C.3   5411  UNL5411     0.0000
   5459 C          29.2530   70.5389   29.2530 C.3   5412  UNL5412     0.0000
   5460 C          70.5389   81.8332   81.8332 C.3   5413  UNL5413     0.0000
   5461 C          26.1044   73.6875   29.2530 C.3   5414  UNL5414     0.0000
   5462 C          73.6875   37.3987   40.5474 C.3   5415  UNL5415     0.0000
   5463 C          70.5389   37.3987   37.3987 C.3   5416  UNL5416     0.0000
   5464 C          73.6875   40.5474   37.3987 C.3   5417  UNL5417     0.0000
   5465 C          15.1815    7.0358    3.8871 C.3   5418  UNL5418     0.0000
   5466 C          15.1815    3.8871    7.0358 C.3   5419  UNL5419     0.0000
   5467 C          18.3301    7.0358    7.0358 C.3   5420  UNL5420     0.0000
   5468 C          59.6160   59.6160   18.3301 C.3   5421  UNL5421     0.0000
   5469 C          62.7646   59.6160   15.1815 C.3   5422  UNL5422     0.0000
   5470 C          59.6160   62.7646   15.1815 C.3   5423  UNL5423     0.0000
   5471 C          29.2530   29.2530   70.5389 C.3   5424  UNL5424     0.0000
   5472 C          29.2530   26.1044   73.6875 C.3   5425  UNL5425     0.0000
   5473 C          26.1044   29.2530   73.6875 C.3   5426  UNL5426     0.0000
   5474 C          51.3058    6.8714   64.1767 C.3   5427  UNL5427     0.0000
   5475 C           6.8714   59.7804   46.9095 C.3   5428  UNL5428     0.0000
   5476 C          59.7804   51.3058    2.4750 C.3   5429  UNL5429     0.0000
   5477 C          19.7422   15.3459   15.3459 C.3   5430  UNL5430     0.0000
   5478 C          64.1767   51.3058    6.8714 C.3   5431  UNL5431     0.0000
   5479 C          46.9095    6.8714   59.7804 C.3   5432  UNL5432     0.0000
   5480 C           2.4750   59.7804   51.3058 C.3   5433  UNL5433     0.0000
   5481 C          15.3459   19.7422   15.3459 C.3   5434  UNL5434     0.0000
   5482 C           6.8714   64.1767   51.3058 C.3   5435  UNL5435     0.0000
   5483 C          59.7804   46.9095    6.8714 C.3   5436  UNL5436     0.0000
   5484 C          51.3058    2.4750   59.7804 C.3   5437  UNL5437     0.0000
   5485 C          81.9976   37.5631   24.6922 C.3   5438  UNL5438     0.0000
   5486 C          73.5231   73.5231   69.1267 C.3   5439  UNL5439     0.0000
   5487 C          37.5631   29.0886   86.3940 C.3   5440  UNL5440     0.0000
   5488 C          29.0886   81.9976   41.9595 C.3   5441  UNL5441     0.0000
   5489 C          81.9976   41.9595   29.0886 C.3   5442  UNL5442     0.0000
   5490 C          29.0886   86.3940   37.5631 C.3   5443  UNL5443     0.0000
   5491 C          73.5231   69.1267   73.5231 C.3   5444  UNL5444     0.0000
   5492 C          37.5631   24.6922   81.9976 C.3   5445  UNL5445     0.0000
   5493 C          86.3940   37.5631   29.0886 C.3   5446  UNL5446     0.0000
   5494 C          41.9595   29.0886   81.9976 C.3   5447  UNL5447     0.0000
   5495 C          24.6922   81.9976   37.5631 C.3   5448  UNL5448     0.0000
   5496 C          69.1267   73.5231   73.5231 C.3   5449  UNL5449     0.0000
   5497 C          37.5631   81.9976   24.6922 C.3   5450  UNL5450     0.0000
   5498 C          81.9976   29.0886   41.9595 C.3   5451  UNL5451     0.0000
   5499 C          29.0886   37.5631   86.3940 C.3   5452  UNL5452     0.0000
   5500 C          24.6922   37.5631   81.9976 C.3   5453  UNL5453     0.0000
   5501 C          41.9595   81.9976   29.0886 C.3   5454  UNL5454     0.0000
   5502 C          86.3940   29.0886   37.5631 C.3   5455  UNL5455     0.0000
   5503 C          81.9976   24.6922   37.5631 C.3   5456  UNL5456     0.0000
   5504 C          29.0886   41.9595   81.9976 C.3   5457  UNL5457     0.0000
   5505 C          37.5631   86.3940   29.0886 C.3   5458  UNL5458     0.0000
   5506 C           6.8714   51.3058   64.1767 C.3   5459  UNL5459     0.0000
   5507 C          51.3058   59.7804    2.4750 C.3   5460  UNL5460     0.0000
   5508 C          59.7804    6.8714   46.9095 C.3   5461  UNL5461     0.0000
   5509 C           6.8714   46.9095   59.7804 C.3   5462  UNL5462     0.0000
   5510 C          59.7804    2.4750   51.3058 C.3   5463  UNL5463     0.0000
   5511 C          51.3058   64.1767    6.8714 C.3   5464  UNL5464     0.0000
   5512 C           2.4750   51.3058   59.7804 C.3   5465  UNL5465     0.0000
   5513 C          46.9095   59.7804    6.8714 C.3   5466  UNL5466     0.0000
   5514 C          64.1767    6.8714   51.3058 C.3   5467  UNL5467     0.0000
   5515 C          15.3459   59.7804   64.1767 C.3   5468  UNL5468     0.0000
   5516 C          51.3058   51.3058   19.7422 C.3   5469  UNL5469     0.0000
   5517 C           6.8714   15.3459    2.4750 C.3   5470  UNL5470     0.0000
   5518 C          19.7422   59.7804   59.7804 C.3   5471  UNL5471     0.0000
   5519 C          46.9095   51.3058   15.3459 C.3   5472  UNL5472     0.0000
   5520 C           2.4750   15.3459    6.8714 C.3   5473  UNL5473     0.0000
   5521 C          15.3459   64.1767   59.7804 C.3   5474  UNL5474     0.0000
   5522 C           6.8714   19.7422    6.8714 C.3   5475  UNL5475     0.0000
   5523 C          51.3058   46.9095   15.3459 C.3   5476  UNL5476     0.0000
   5524 C          81.9976   81.9976   69.1267 C.3   5477  UNL5477     0.0000
   5525 C          73.5231   29.0886   24.6922 C.3   5478  UNL5478     0.0000
   5526 C          37.5631   73.5231   41.9595 C.3   5479  UNL5479     0.0000
   5527 C          81.9976   86.3940   73.5231 C.3   5480  UNL5480     0.0000
   5528 C          73.5231   24.6922   29.0886 C.3   5481  UNL5481     0.0000
   5529 C          37.5631   69.1267   37.5631 C.3   5482  UNL5482     0.0000
   5530 C          86.3940   81.9976   73.5231 C.3   5483  UNL5483     0.0000
   5531 C          41.9595   73.5231   37.5631 C.3   5484  UNL5484     0.0000
   5532 C          69.1267   29.0886   29.0886 C.3   5485  UNL5485     0.0000
   5533 C          37.5631   37.5631   69.1267 C.3   5486  UNL5486     0.0000
   5534 C          81.9976   73.5231   86.3940 C.3   5487  UNL5487     0.0000
   5535 C          41.9595   37.5631   73.5231 C.3   5488  UNL5488     0.0000
   5536 C          86.3940   73.5231   81.9976 C.3   5489  UNL5489     0.0000
   5537 C          81.9976   69.1267   81.9976 C.3   5490  UNL5490     0.0000
   5538 C          37.5631   41.9595   73.5231 C.3   5491  UNL5491     0.0000
   5539 C           6.8714    6.8714   19.7422 C.3   5492  UNL5492     0.0000
   5540 C          51.3058   15.3459   46.9095 C.3   5493  UNL5493     0.0000
   5541 C           6.8714    2.4750   15.3459 C.3   5494  UNL5494     0.0000
   5542 C          51.3058   19.7422   51.3058 C.3   5495  UNL5495     0.0000
   5543 C           2.4750    6.8714   15.3459 C.3   5496  UNL5496     0.0000
   5544 C          46.9095   15.3459   51.3058 C.3   5497  UNL5497     0.0000
   5545 C          59.7804   15.3459   64.1767 C.3   5498  UNL5498     0.0000
   5546 C          15.3459   51.3058   46.9095 C.3   5499  UNL5499     0.0000
   5547 C          64.1767   15.3459   59.7804 C.3   5500  UNL5500     0.0000
   5548 C          19.7422   51.3058   51.3058 C.3   5501  UNL5501     0.0000
   5549 C          59.7804   19.7422   59.7804 C.3   5502  UNL5502     0.0000
   5550 C          15.3459   46.9095   51.3058 C.3   5503  UNL5503     0.0000
   5551 C          29.0886   73.5231   24.6922 C.3   5504  UNL5504     0.0000
   5552 C          73.5231   81.9976   86.3940 C.3   5505  UNL5505     0.0000
   5553 C          73.5231   86.3940   81.9976 C.3   5506  UNL5506     0.0000
   5554 C          29.0886   69.1267   29.0886 C.3   5507  UNL5507     0.0000
   5555 C          69.1267   81.9976   81.9976 C.3   5508  UNL5508     0.0000
   5556 C          24.6922   73.5231   29.0886 C.3   5509  UNL5509     0.0000
   5557 C          73.5231   37.5631   41.9595 C.3   5510  UNL5510     0.0000
   5558 C          69.1267   37.5631   37.5631 C.3   5511  UNL5511     0.0000
   5559 C          73.5231   41.9595   37.5631 C.3   5512  UNL5512     0.0000
   5560 C          15.3459    6.8714    2.4750 C.3   5513  UNL5513     0.0000
   5561 C          15.3459    2.4750    6.8714 C.3   5514  UNL5514     0.0000
   5562 C          19.7422    6.8714    6.8714 C.3   5515  UNL5515     0.0000
   5563 C          59.7804   59.7804   19.7422 C.3   5516  UNL5516     0.0000
   5564 C          64.1767   59.7804   15.3459 C.3   5517  UNL5517     0.0000
   5565 C          59.7804   64.1767   15.3459 C.3   5518  UNL5518     0.0000
   5566 C          29.0886   29.0886   69.1267 C.3   5519  UNL5519     0.0000
   5567 C          29.0886   24.6922   73.5231 C.3   5520  UNL5520     0.0000
   5568 C          24.6922   29.0886   73.5231 C.3   5521  UNL5521     0.0000
   5569 C          45.6582    0.2239   26.3861 C.3   5522  UNL5522     0.0000
   5570 C           1.2237   66.4278   84.7001 C.3   5523  UNL5523     0.0000
   5571 C          65.4280   44.6584   40.2657 C.3   5524  UNL5524     0.0000
   5572 C          70.8206   20.9935   21.9933 C.3   5525  UNL5525     0.0000
   5573 C          26.3861   45.6582    0.2239 C.3   5526  UNL5526     0.0000
   5574 C          84.7001    1.2237   66.4278 C.3   5527  UNL5527     0.0000
   5575 C          40.2657   65.4280   44.6584 C.3   5528  UNL5528     0.0000
   5576 C          21.9933   70.8206   20.9935 C.3   5529  UNL5529     0.0000
   5577 C           0.2239   26.3861   45.6582 C.3   5530  UNL5530     0.0000
   5578 C          66.4278   84.7001    1.2237 C.3   5531  UNL5531     0.0000
   5579 C          44.6584   40.2657   65.4280 C.3   5532  UNL5532     0.0000
   5580 C          88.6450   43.2108   62.4829 C.3   5533  UNL5533     0.0000
   5581 C          66.8757   67.8755   18.0484 C.3   5534  UNL5534     0.0000
   5582 C          44.2105   23.4410   48.6033 C.3   5535  UNL5535     0.0000
   5583 C          22.4412   87.6453    4.1688 C.3   5536  UNL5536     0.0000
   5584 C          87.6453    4.1688   22.4412 C.3   5537  UNL5537     0.0000
   5585 C          23.4410   48.6033   44.2105 C.3   5538  UNL5538     0.0000
   5586 C          67.8755   18.0484   66.8757 C.3   5539  UNL5539     0.0000
   5587 C          43.2108   62.4829   88.6450 C.3   5540  UNL5540     0.0000
   5588 C          48.6033   44.2105   23.4410 C.3   5541  UNL5541     0.0000
   5589 C           4.1688   22.4412   87.6453 C.3   5542  UNL5542     0.0000
   5590 C          62.4829   88.6450   43.2108 C.3   5543  UNL5543     0.0000
   5591 C          18.0484   66.8757   67.8755 C.3   5544  UNL5544     0.0000
   5592 C          67.8755   66.8757   18.0484 C.3   5545  UNL5545     0.0000
   5593 C          43.2108   88.6450   62.4829 C.3   5546  UNL5546     0.0000
   5594 C          87.6453   22.4412    4.1688 C.3   5547  UNL5547     0.0000
   5595 C          23.4410   44.2105   48.6033 C.3   5548  UNL5548     0.0000
   5596 C          18.0484   67.8755   66.8757 C.3   5549  UNL5549     0.0000
   5597 C          62.4829   43.2108   88.6450 C.3   5550  UNL5550     0.0000
   5598 C           4.1688   87.6453   22.4412 C.3   5551  UNL5551     0.0000
   5599 C          48.6033   23.4410   44.2105 C.3   5552  UNL5552     0.0000
   5600 C          66.8757   18.0484   67.8755 C.3   5553  UNL5553     0.0000
   5601 C          88.6450   62.4829   43.2108 C.3   5554  UNL5554     0.0000
   5602 C          22.4412    4.1688   87.6453 C.3   5555  UNL5555     0.0000
   5603 C          44.2105   48.6033   23.4410 C.3   5556  UNL5556     0.0000
   5604 C           0.2239   45.6582   26.3861 C.3   5557  UNL5557     0.0000
   5605 C          21.9933   20.9935   70.8206 C.3   5558  UNL5558     0.0000
   5606 C          44.6584   65.4280   40.2657 C.3   5559  UNL5559     0.0000
   5607 C          66.4278    1.2237   84.7001 C.3   5560  UNL5560     0.0000
   5608 C           1.2237   84.7001   66.4278 C.3   5561  UNL5561     0.0000
   5609 C          65.4280   40.2657   44.6584 C.3   5562  UNL5562     0.0000
   5610 C          20.9935   70.8206   21.9933 C.3   5563  UNL5563     0.0000
   5611 C          45.6582   26.3861    0.2239 C.3   5564  UNL5564     0.0000
   5612 C          40.2657   44.6584   65.4280 C.3   5565  UNL5565     0.0000
   5613 C          84.7001   66.4278    1.2237 C.3   5566  UNL5566     0.0000
   5614 C          26.3861    0.2239   45.6582 C.3   5567  UNL5567     0.0000
   5615 C          70.8206   21.9933   20.9935 C.3   5568  UNL5568     0.0000
   5616 C          20.9935   66.4278   26.3861 C.3   5569  UNL5569     0.0000
   5617 C          45.6582   44.6584   70.8206 C.3   5570  UNL5570     0.0000
   5618 C           1.2237   21.9933   40.2657 C.3   5571  UNL5571     0.0000
   5619 C          65.4280    0.2239   84.7001 C.3   5572  UNL5572     0.0000
   5620 C          70.8206   65.4280   66.4278 C.3   5573  UNL5573     0.0000
   5621 C          26.3861    1.2237   44.6584 C.3   5574  UNL5574     0.0000
   5622 C          84.7001   45.6582   21.9933 C.3   5575  UNL5575     0.0000
   5623 C          40.2657   20.9935    0.2239 C.3   5576  UNL5576     0.0000
   5624 C          21.9933   26.3861   65.4280 C.3   5577  UNL5577     0.0000
   5625 C           0.2239   70.8206    1.2237 C.3   5578  UNL5578     0.0000
   5626 C          66.4278   40.2657   45.6582 C.3   5579  UNL5579     0.0000
   5627 C          44.6584   84.7001   20.9935 C.3   5580  UNL5580     0.0000
   5628 C          88.6450   87.6453   18.0484 C.3   5581  UNL5581     0.0000
   5629 C          66.8757   23.4410   62.4829 C.3   5582  UNL5582     0.0000
   5630 C          44.2105   67.8755    4.1688 C.3   5583  UNL5583     0.0000
   5631 C          22.4412   43.2108   48.6033 C.3   5584  UNL5584     0.0000
   5632 C          87.6453   48.6033   66.8757 C.3   5585  UNL5585     0.0000
   5633 C          23.4410    4.1688   88.6450 C.3   5586  UNL5586     0.0000
   5634 C          67.8755   62.4829   22.4412 C.3   5587  UNL5587     0.0000
   5635 C          43.2108   18.0484   44.2105 C.3   5588  UNL5588     0.0000
   5636 C          48.6033   88.6450   67.8755 C.3   5589  UNL5589     0.0000
   5637 C           4.1688   66.8757   43.2108 C.3   5590  UNL5590     0.0000
   5638 C          62.4829   44.2105   87.6453 C.3   5591  UNL5591     0.0000
   5639 C          18.0484   22.4412   23.4410 C.3   5592  UNL5592     0.0000
   5640 C          67.8755   22.4412   62.4829 C.3   5593  UNL5593     0.0000
   5641 C          43.2108   44.2105   18.0484 C.3   5594  UNL5594     0.0000
   5642 C          87.6453   66.8757   48.6033 C.3   5595  UNL5595     0.0000
   5643 C          23.4410   88.6450    4.1688 C.3   5596  UNL5596     0.0000
   5644 C          18.0484   23.4410   22.4412 C.3   5597  UNL5597     0.0000
   5645 C          62.4829   87.6453   44.2105 C.3   5598  UNL5598     0.0000
   5646 C           4.1688   43.2108   66.8757 C.3   5599  UNL5599     0.0000
   5647 C          48.6033   67.8755   88.6450 C.3   5600  UNL5600     0.0000
   5648 C          66.8757   62.4829   23.4410 C.3   5601  UNL5601     0.0000
   5649 C          88.6450   18.0484   87.6453 C.3   5602  UNL5602     0.0000
   5650 C          22.4412   48.6033   43.2108 C.3   5603  UNL5603     0.0000
   5651 C          44.2105    4.1688   67.8755 C.3   5604  UNL5604     0.0000
   5652 C           0.2239    1.2237   70.8206 C.3   5605  UNL5605     0.0000
   5653 C          21.9933   65.4280   26.3861 C.3   5606  UNL5606     0.0000
   5654 C          44.6584   20.9935   84.7001 C.3   5607  UNL5607     0.0000
   5655 C          66.4278   45.6582   40.2657 C.3   5608  UNL5608     0.0000
   5656 C           1.2237   40.2657   21.9933 C.3   5609  UNL5609     0.0000
   5657 C          65.4280   84.7001    0.2239 C.3   5610  UNL5610     0.0000
   5658 C          20.9935   26.3861   66.4278 C.3   5611  UNL5611     0.0000
   5659 C          45.6582   70.8206   44.6584 C.3   5612  UNL5612     0.0000
   5660 C          40.2657    0.2239   20.9935 C.3   5613  UNL5613     0.0000
   5661 C          84.7001   21.9933   45.6582 C.3   5614  UNL5614     0.0000
   5662 C          26.3861   44.6584    1.2237 C.3   5615  UNL5615     0.0000
   5663 C          70.8206   66.4278   65.4280 C.3   5616  UNL5616     0.0000
   5664 C          65.4280   21.9933   26.3861 C.3   5617  UNL5617     0.0000
   5665 C           1.2237    0.2239   70.8206 C.3   5618  UNL5618     0.0000
   5666 C          45.6582   66.4278   40.2657 C.3   5619  UNL5619     0.0000
   5667 C          20.9935   44.6584   84.7001 C.3   5620  UNL5620     0.0000
   5668 C          26.3861   20.9935   66.4278 C.3   5621  UNL5621     0.0000
   5669 C          70.8206   45.6582   44.6584 C.3   5622  UNL5622     0.0000
   5670 C          40.2657    1.2237   21.9933 C.3   5623  UNL5623     0.0000
   5671 C          84.7001   65.4280    0.2239 C.3   5624  UNL5624     0.0000
   5672 C          66.4278   70.8206   65.4280 C.3   5625  UNL5625     0.0000
   5673 C          44.6584   26.3861    1.2237 C.3   5626  UNL5626     0.0000
   5674 C          21.9933   84.7001   45.6582 C.3   5627  UNL5627     0.0000
   5675 C           0.2239   40.2657   20.9935 C.3   5628  UNL5628     0.0000
   5676 C          44.2105   43.2108   18.0484 C.3   5629  UNL5629     0.0000
   5677 C          22.4412   67.8755   62.4829 C.3   5630  UNL5630     0.0000
   5678 C          88.6450   23.4410    4.1688 C.3   5631  UNL5631     0.0000
   5679 C          66.8757   87.6453   48.6033 C.3   5632  UNL5632     0.0000
   5680 C          43.2108    4.1688   66.8757 C.3   5633  UNL5633     0.0000
   5681 C          67.8755   48.6033   88.6450 C.3   5634  UNL5634     0.0000
   5682 C          23.4410   18.0484   22.4412 C.3   5635  UNL5635     0.0000
   5683 C          87.6453   62.4829   44.2105 C.3   5636  UNL5636     0.0000
   5684 C           4.1688   44.2105   67.8755 C.3   5637  UNL5637     0.0000
   5685 C          48.6033   22.4412   43.2108 C.3   5638  UNL5638     0.0000
   5686 C          18.0484   88.6450   87.6453 C.3   5639  UNL5639     0.0000
   5687 C          62.4829   66.8757   23.4410 C.3   5640  UNL5640     0.0000
   5688 C          23.4410   66.8757   62.4829 C.3   5641  UNL5641     0.0000
   5689 C          87.6453   88.6450   18.0484 C.3   5642  UNL5642     0.0000
   5690 C          43.2108   22.4412   48.6033 C.3   5643  UNL5643     0.0000
   5691 C          67.8755   44.2105    4.1688 C.3   5644  UNL5644     0.0000
   5692 C          62.4829   67.8755   22.4412 C.3   5645  UNL5645     0.0000
   5693 C          18.0484   43.2108   44.2105 C.3   5646  UNL5646     0.0000
   5694 C          48.6033   87.6453   66.8757 C.3   5647  UNL5647     0.0000
   5695 C           4.1688   23.4410   88.6450 C.3   5648  UNL5648     0.0000
   5696 C          22.4412   18.0484   23.4410 C.3   5649  UNL5649     0.0000
   5697 C          44.2105   62.4829   87.6453 C.3   5650  UNL5650     0.0000
   5698 C          66.8757    4.1688   43.2108 C.3   5651  UNL5651     0.0000
   5699 C          88.6450   48.6033   67.8755 C.3   5652  UNL5652     0.0000
   5700 C          44.6584   45.6582   70.8206 C.3   5653  UNL5653     0.0000
   5701 C          66.4278   20.9935   26.3861 C.3   5654  UNL5654     0.0000
   5702 C           0.2239   65.4280   84.7001 C.3   5655  UNL5655     0.0000
   5703 C          21.9933    1.2237   40.2657 C.3   5656  UNL5656     0.0000
   5704 C          45.6582   84.7001   21.9933 C.3   5657  UNL5657     0.0000
   5705 C          20.9935   40.2657    0.2239 C.3   5658  UNL5658     0.0000
   5706 C          65.4280   70.8206   66.4278 C.3   5659  UNL5659     0.0000
   5707 C           1.2237   26.3861   44.6584 C.3   5660  UNL5660     0.0000
   5708 C          84.7001   44.6584   20.9935 C.3   5661  UNL5661     0.0000
   5709 C          40.2657   66.4278   45.6582 C.3   5662  UNL5662     0.0000
   5710 C          70.8206    0.2239    1.2237 C.3   5663  UNL5663     0.0000
   5711 C          26.3861   21.9933   65.4280 C.3   5664  UNL5664     0.0000
   5712 C          65.4280   66.4278   70.8206 C.3   5665  UNL5665     0.0000
   5713 C           1.2237   44.6584   26.3861 C.3   5666  UNL5666     0.0000
   5714 C          45.6582   21.9933   84.7001 C.3   5667  UNL5667     0.0000
   5715 C          20.9935    0.2239   40.2657 C.3   5668  UNL5668     0.0000
   5716 C          26.3861   65.4280   21.9933 C.3   5669  UNL5669     0.0000
   5717 C          70.8206    1.2237    0.2239 C.3   5670  UNL5670     0.0000
   5718 C          40.2657   45.6582   66.4278 C.3   5671  UNL5671     0.0000
   5719 C          84.7001   20.9935   44.6584 C.3   5672  UNL5672     0.0000
   5720 C          66.4278   26.3861   20.9935 C.3   5673  UNL5673     0.0000
   5721 C          44.6584   70.8206   45.6582 C.3   5674  UNL5674     0.0000
   5722 C          21.9933   40.2657    1.2237 C.3   5675  UNL5675     0.0000
   5723 C           0.2239   84.7001   65.4280 C.3   5676  UNL5676     0.0000
   5724 C          44.2105   87.6453   62.4829 C.3   5677  UNL5677     0.0000
   5725 C          22.4412   23.4410   18.0484 C.3   5678  UNL5678     0.0000
   5726 C          88.6450   67.8755   48.6033 C.3   5679  UNL5679     0.0000
   5727 C          66.8757   43.2108    4.1688 C.3   5680  UNL5680     0.0000
   5728 C          43.2108   48.6033   22.4412 C.3   5681  UNL5681     0.0000
   5729 C          67.8755    4.1688   44.2105 C.3   5682  UNL5682     0.0000
   5730 C          23.4410   62.4829   66.8757 C.3   5683  UNL5683     0.0000
   5731 C          87.6453   18.0484   88.6450 C.3   5684  UNL5684     0.0000
   5732 C           4.1688   88.6450   23.4410 C.3   5685  UNL5685     0.0000
   5733 C          48.6033   66.8757   87.6453 C.3   5686  UNL5686     0.0000
   5734 C          18.0484   44.2105   43.2108 C.3   5687  UNL5687     0.0000
   5735 C          62.4829   22.4412   67.8755 C.3   5688  UNL5688     0.0000
   5736 C          23.4410   22.4412   18.0484 C.3   5689  UNL5689     0.0000
   5737 C          87.6453   44.2105   62.4829 C.3   5690  UNL5690     0.0000
   5738 C          43.2108   66.8757    4.1688 C.3   5691  UNL5691     0.0000
   5739 C          67.8755   88.6450   48.6033 C.3   5692  UNL5692     0.0000
   5740 C          62.4829   23.4410   66.8757 C.3   5693  UNL5693     0.0000
   5741 C          18.0484   87.6453   88.6450 C.3   5694  UNL5694     0.0000
   5742 C          48.6033   43.2108   22.4412 C.3   5695  UNL5695     0.0000
   5743 C           4.1688   67.8755   44.2105 C.3   5696  UNL5696     0.0000
   5744 C          22.4412   62.4829   67.8755 C.3   5697  UNL5697     0.0000
   5745 C          44.2105   18.0484   43.2108 C.3   5698  UNL5698     0.0000
   5746 C          66.8757   48.6033   87.6453 C.3   5699  UNL5699     0.0000
   5747 C          88.6450    4.1688   23.4410 C.3   5700  UNL5700     0.0000
   5748 C          44.6584    1.2237   26.3861 C.3   5701  UNL5701     0.0000
   5749 C          66.4278   65.4280   70.8206 C.3   5702  UNL5702     0.0000
   5750 C           0.2239   20.9935   40.2657 C.3   5703  UNL5703     0.0000
   5751 C          21.9933   45.6582   84.7001 C.3   5704  UNL5704     0.0000
   5752 C          45.6582   40.2657   66.4278 C.3   5705  UNL5705     0.0000
   5753 C          20.9935   84.7001   44.6584 C.3   5706  UNL5706     0.0000
   5754 C          65.4280   26.3861   21.9933 C.3   5707  UNL5707     0.0000
   5755 C           1.2237   70.8206    0.2239 C.3   5708  UNL5708     0.0000
   5756 C          84.7001    0.2239   65.4280 C.3   5709  UNL5709     0.0000
   5757 C          40.2657   21.9933    1.2237 C.3   5710  UNL5710     0.0000
   5758 C          70.8206   44.6584   45.6582 C.3   5711  UNL5711     0.0000
   5759 C          26.3861   66.4278   20.9935 C.3   5712  UNL5712     0.0000
   5760 C          46.5674   87.0623   27.3148 C.3   5713  UNL5713     0.0000
   5761 C           2.1329   68.4584   83.7715 C.3   5714  UNL5714     0.0000
   5762 C          64.5189   42.6278   39.3370 C.3   5715  UNL5715     0.0000
   5763 C          71.7493   20.0844   24.0240 C.3   5716  UNL5716     0.0000
   5764 C          27.3148   46.5674   87.0623 C.3   5717  UNL5717     0.0000
   5765 C          83.7715    2.1329   68.4584 C.3   5718  UNL5718     0.0000
   5766 C          39.3370   64.5189   42.6278 C.3   5719  UNL5719     0.0000
   5767 C          24.0240   71.7493   20.0844 C.3   5720  UNL5720     0.0000
   5768 C          87.0623   27.3148   46.5674 C.3   5721  UNL5721     0.0000
   5769 C          68.4584   83.7715    2.1329 C.3   5722  UNL5722     0.0000
   5770 C          42.6278   39.3370   64.5189 C.3   5723  UNL5723     0.0000
   5771 C           1.8067   42.3016   61.5542 C.3   5724  UNL5724     0.0000
   5772 C          64.8450   68.7846   17.1197 C.3   5725  UNL5725     0.0000
   5773 C          46.2412   24.3501   49.5320 C.3   5726  UNL5726     0.0000
   5774 C          20.4105   86.7361    5.0975 C.3   5727  UNL5727     0.0000
   5775 C          86.7361    5.0975   20.4105 C.3   5728  UNL5728     0.0000
   5776 C          24.3501   49.5320   46.2412 C.3   5729  UNL5729     0.0000
   5777 C          68.7846   17.1197   64.8450 C.3   5730  UNL5730     0.0000
   5778 C          42.3016   61.5542    1.8067 C.3   5731  UNL5731     0.0000
   5779 C          49.5320   46.2412   24.3501 C.3   5732  UNL5732     0.0000
   5780 C           5.0975   20.4105   86.7361 C.3   5733  UNL5733     0.0000
   5781 C          61.5542    1.8067   42.3016 C.3   5734  UNL5734     0.0000
   5782 C          17.1197   64.8450   68.7846 C.3   5735  UNL5735     0.0000
   5783 C          68.7846   64.8450   17.1197 C.3   5736  UNL5736     0.0000
   5784 C          42.3016    1.8067   61.5542 C.3   5737  UNL5737     0.0000
   5785 C          86.7361   20.4105    5.0975 C.3   5738  UNL5738     0.0000
   5786 C          24.3501   46.2412   49.5320 C.3   5739  UNL5739     0.0000
   5787 C          17.1197   68.7846   64.8450 C.3   5740  UNL5740     0.0000
   5788 C          61.5542   42.3016    1.8067 C.3   5741  UNL5741     0.0000
   5789 C           5.0975   86.7361   20.4105 C.3   5742  UNL5742     0.0000
   5790 C          49.5320   24.3501   46.2412 C.3   5743  UNL5743     0.0000
   5791 C          64.8450   17.1197   68.7846 C.3   5744  UNL5744     0.0000
   5792 C           1.8067   61.5542   42.3016 C.3   5745  UNL5745     0.0000
   5793 C          20.4105    5.0975   86.7361 C.3   5746  UNL5746     0.0000
   5794 C          46.2412   49.5320   24.3501 C.3   5747  UNL5747     0.0000
   5795 C          87.0623   46.5674   27.3148 C.3   5748  UNL5748     0.0000
   5796 C          24.0240   20.0844   71.7493 C.3   5749  UNL5749     0.0000
   5797 C          42.6278   64.5189   39.3370 C.3   5750  UNL5750     0.0000
   5798 C          68.4584    2.1329   83.7715 C.3   5751  UNL5751     0.0000
   5799 C           2.1329   83.7715   68.4584 C.3   5752  UNL5752     0.0000
   5800 C          64.5189   39.3370   42.6278 C.3   5753  UNL5753     0.0000
   5801 C          20.0844   71.7493   24.0240 C.3   5754  UNL5754     0.0000
   5802 C          46.5674   27.3148   87.0623 C.3   5755  UNL5755     0.0000
   5803 C          39.3370   42.6278   64.5189 C.3   5756  UNL5756     0.0000
   5804 C          83.7715   68.4584    2.1329 C.3   5757  UNL5757     0.0000
   5805 C          27.3148   87.0623   46.5674 C.3   5758  UNL5758     0.0000
   5806 C          71.7493   24.0240   20.0844 C.3   5759  UNL5759     0.0000
   5807 C          20.0844   68.4584   27.3148 C.3   5760  UNL5760     0.0000
   5808 C          46.5674   42.6278   71.7493 C.3   5761  UNL5761     0.0000
   5809 C           2.1329   24.0240   39.3370 C.3   5762  UNL5762     0.0000
   5810 C          64.5189   87.0623   83.7715 C.3   5763  UNL5763     0.0000
   5811 C          71.7493   64.5189   68.4584 C.3   5764  UNL5764     0.0000
   5812 C          27.3148    2.1329   42.6278 C.3   5765  UNL5765     0.0000
   5813 C          83.7715   46.5674   24.0240 C.3   5766  UNL5766     0.0000
   5814 C          39.3370   20.0844   87.0623 C.3   5767  UNL5767     0.0000
   5815 C          24.0240   27.3148   64.5189 C.3   5768  UNL5768     0.0000
   5816 C          87.0623   71.7493    2.1329 C.3   5769  UNL5769     0.0000
   5817 C          68.4584   39.3370   46.5674 C.3   5770  UNL5770     0.0000
   5818 C          42.6278   83.7715   20.0844 C.3   5771  UNL5771     0.0000
   5819 C           1.8067   86.7361   17.1197 C.3   5772  UNL5772     0.0000
   5820 C          64.8450   24.3501   61.5542 C.3   5773  UNL5773     0.0000
   5821 C          46.2412   68.7846    5.0975 C.3   5774  UNL5774     0.0000
   5822 C          20.4105   42.3016   49.5320 C.3   5775  UNL5775     0.0000
   5823 C          86.7361   49.5320   64.8450 C.3   5776  UNL5776     0.0000
   5824 C          24.3501    5.0975    1.8067 C.3   5777  UNL5777     0.0000
   5825 C          68.7846   61.5542   20.4105 C.3   5778  UNL5778     0.0000
   5826 C          42.3016   17.1197   46.2412 C.3   5779  UNL5779     0.0000
   5827 C          49.5320    1.8067   68.7846 C.3   5780  UNL5780     0.0000
   5828 C           5.0975   64.8450   42.3016 C.3   5781  UNL5781     0.0000
   5829 C          61.5542   46.2412   86.7361 C.3   5782  UNL5782     0.0000
   5830 C          17.1197   20.4105   24.3501 C.3   5783  UNL5783     0.0000
   5831 C          68.7846   20.4105   61.5542 C.3   5784  UNL5784     0.0000
   5832 C          42.3016   46.2412   17.1197 C.3   5785  UNL5785     0.0000
   5833 C          86.7361   64.8450   49.5320 C.3   5786  UNL5786     0.0000
   5834 C          24.3501    1.8067    5.0975 C.3   5787  UNL5787     0.0000
   5835 C          17.1197   24.3501   20.4105 C.3   5788  UNL5788     0.0000
   5836 C          61.5542   86.7361   46.2412 C.3   5789  UNL5789     0.0000
   5837 C           5.0975   42.3016   64.8450 C.3   5790  UNL5790     0.0000
   5838 C          49.5320   68.7846    1.8067 C.3   5791  UNL5791     0.0000
   5839 C          64.8450   61.5542   24.3501 C.3   5792  UNL5792     0.0000
   5840 C           1.8067   17.1197   86.7361 C.3   5793  UNL5793     0.0000
   5841 C          20.4105   49.5320   42.3016 C.3   5794  UNL5794     0.0000
   5842 C          46.2412    5.0975   68.7846 C.3   5795  UNL5795     0.0000
   5843 C          87.0623    2.1329   71.7493 C.3   5796  UNL5796     0.0000
   5844 C          24.0240   64.5189   27.3148 C.3   5797  UNL5797     0.0000
   5845 C          42.6278   20.0844   83.7715 C.3   5798  UNL5798     0.0000
   5846 C          68.4584   46.5674   39.3370 C.3   5799  UNL5799     0.0000
   5847 C           2.1329   39.3370   24.0240 C.3   5800  UNL5800     0.0000
   5848 C          64.5189   83.7715   87.0623 C.3   5801  UNL5801     0.0000
   5849 C          20.0844   27.3148   68.4584 C.3   5802  UNL5802     0.0000
   5850 C          46.5674   71.7493   42.6278 C.3   5803  UNL5803     0.0000
   5851 C          39.3370   87.0623   20.0844 C.3   5804  UNL5804     0.0000
   5852 C          83.7715   24.0240   46.5674 C.3   5805  UNL5805     0.0000
   5853 C          27.3148   42.6278    2.1329 C.3   5806  UNL5806     0.0000
   5854 C          71.7493   68.4584   64.5189 C.3   5807  UNL5807     0.0000
   5855 C          64.5189   24.0240   27.3148 C.3   5808  UNL5808     0.0000
   5856 C           2.1329   87.0623   71.7493 C.3   5809  UNL5809     0.0000
   5857 C          46.5674   68.4584   39.3370 C.3   5810  UNL5810     0.0000
   5858 C          20.0844   42.6278   83.7715 C.3   5811  UNL5811     0.0000
   5859 C          27.3148   20.0844   68.4584 C.3   5812  UNL5812     0.0000
   5860 C          71.7493   46.5674   42.6278 C.3   5813  UNL5813     0.0000
   5861 C          39.3370    2.1329   24.0240 C.3   5814  UNL5814     0.0000
   5862 C          83.7715   64.5189   87.0623 C.3   5815  UNL5815     0.0000
   5863 C          68.4584   71.7493   64.5189 C.3   5816  UNL5816     0.0000
   5864 C          42.6278   27.3148    2.1329 C.3   5817  UNL5817     0.0000
   5865 C          24.0240   83.7715   46.5674 C.3   5818  UNL5818     0.0000
   5866 C          87.0623   39.3370   20.0844 C.3   5819  UNL5819     0.0000
   5867 C          46.2412   42.3016   17.1197 C.3   5820  UNL5820     0.0000
   5868 C          20.4105   68.7846   61.5542 C.3   5821  UNL5821     0.0000
   5869 C           1.8067   24.3501    5.0975 C.3   5822  UNL5822     0.0000
   5870 C          64.8450   86.7361   49.5320 C.3   5823  UNL5823     0.0000
   5871 C          42.3016    5.0975   64.8450 C.3   5824  UNL5824     0.0000
   5872 C          68.7846   49.5320    1.8067 C.3   5825  UNL5825     0.0000
   5873 C          24.3501   17.1197   20.4105 C.3   5826  UNL5826     0.0000
   5874 C          86.7361   61.5542   46.2412 C.3   5827  UNL5827     0.0000
   5875 C           5.0975   46.2412   68.7846 C.3   5828  UNL5828     0.0000
   5876 C          49.5320   20.4105   42.3016 C.3   5829  UNL5829     0.0000
   5877 C          17.1197    1.8067   86.7361 C.3   5830  UNL5830     0.0000
   5878 C          61.5542   64.8450   24.3501 C.3   5831  UNL5831     0.0000
   5879 C          24.3501   64.8450   61.5542 C.3   5832  UNL5832     0.0000
   5880 C          86.7361    1.8067   17.1197 C.3   5833  UNL5833     0.0000
   5881 C          42.3016   20.4105   49.5320 C.3   5834  UNL5834     0.0000
   5882 C          68.7846   46.2412    5.0975 C.3   5835  UNL5835     0.0000
   5883 C          61.5542   68.7846   20.4105 C.3   5836  UNL5836     0.0000
   5884 C          17.1197   42.3016   46.2412 C.3   5837  UNL5837     0.0000
   5885 C          49.5320   86.7361   64.8450 C.3   5838  UNL5838     0.0000
   5886 C           5.0975   24.3501    1.8067 C.3   5839  UNL5839     0.0000
   5887 C          20.4105   17.1197   24.3501 C.3   5840  UNL5840     0.0000
   5888 C          46.2412   61.5542   86.7361 C.3   5841  UNL5841     0.0000
   5889 C          64.8450    5.0975   42.3016 C.3   5842  UNL5842     0.0000
   5890 C           1.8067   49.5320   68.7846 C.3   5843  UNL5843     0.0000
   5891 C          42.6278   46.5674   71.7493 C.3   5844  UNL5844     0.0000
   5892 C          68.4584   20.0844   27.3148 C.3   5845  UNL5845     0.0000
   5893 C          87.0623   64.5189   83.7715 C.3   5846  UNL5846     0.0000
   5894 C          24.0240    2.1329   39.3370 C.3   5847  UNL5847     0.0000
   5895 C          46.5674   83.7715   24.0240 C.3   5848  UNL5848     0.0000
   5896 C          20.0844   39.3370   87.0623 C.3   5849  UNL5849     0.0000
   5897 C          64.5189   71.7493   68.4584 C.3   5850  UNL5850     0.0000
   5898 C           2.1329   27.3148   42.6278 C.3   5851  UNL5851     0.0000
   5899 C          83.7715   42.6278   20.0844 C.3   5852  UNL5852     0.0000
   5900 C          39.3370   68.4584   46.5674 C.3   5853  UNL5853     0.0000
   5901 C          71.7493   87.0623    2.1329 C.3   5854  UNL5854     0.0000
   5902 C          27.3148   24.0240   64.5189 C.3   5855  UNL5855     0.0000
   5903 C          64.5189   68.4584   71.7493 C.3   5856  UNL5856     0.0000
   5904 C           2.1329   42.6278   27.3148 C.3   5857  UNL5857     0.0000
   5905 C          46.5674   24.0240   83.7715 C.3   5858  UNL5858     0.0000
   5906 C          20.0844   87.0623   39.3370 C.3   5859  UNL5859     0.0000
   5907 C          27.3148   64.5189   24.0240 C.3   5860  UNL5860     0.0000
   5908 C          71.7493    2.1329   87.0623 C.3   5861  UNL5861     0.0000
   5909 C          39.3370   46.5674   68.4584 C.3   5862  UNL5862     0.0000
   5910 C          83.7715   20.0844   42.6278 C.3   5863  UNL5863     0.0000
   5911 C          68.4584   27.3148   20.0844 C.3   5864  UNL5864     0.0000
   5912 C          42.6278   71.7493   46.5674 C.3   5865  UNL5865     0.0000
   5913 C          24.0240   39.3370    2.1329 C.3   5866  UNL5866     0.0000
   5914 C          87.0623   83.7715   64.5189 C.3   5867  UNL5867     0.0000
   5915 C          46.2412   86.7361   61.5542 C.3   5868  UNL5868     0.0000
   5916 C          20.4105   24.3501   17.1197 C.3   5869  UNL5869     0.0000
   5917 C           1.8067   68.7846   49.5320 C.3   5870  UNL5870     0.0000
   5918 C          64.8450   42.3016    5.0975 C.3   5871  UNL5871     0.0000
   5919 C          42.3016   49.5320   20.4105 C.3   5872  UNL5872     0.0000
   5920 C          68.7846    5.0975   46.2412 C.3   5873  UNL5873     0.0000
   5921 C          24.3501   61.5542   64.8450 C.3   5874  UNL5874     0.0000
   5922 C          86.7361   17.1197    1.8067 C.3   5875  UNL5875     0.0000
   5923 C           5.0975    1.8067   24.3501 C.3   5876  UNL5876     0.0000
   5924 C          49.5320   64.8450   86.7361 C.3   5877  UNL5877     0.0000
   5925 C          17.1197   46.2412   42.3016 C.3   5878  UNL5878     0.0000
   5926 C          61.5542   20.4105   68.7846 C.3   5879  UNL5879     0.0000
   5927 C          24.3501   20.4105   17.1197 C.3   5880  UNL5880     0.0000
   5928 C          86.7361   46.2412   61.5542 C.3   5881  UNL5881     0.0000
   5929 C          42.3016   64.8450    5.0975 C.3   5882  UNL5882     0.0000
   5930 C          68.7846    1.8067   49.5320 C.3   5883  UNL5883     0.0000
   5931 C          61.5542   24.3501   64.8450 C.3   5884  UNL5884     0.0000
   5932 C          17.1197   86.7361    1.8067 C.3   5885  UNL5885     0.0000
   5933 C          49.5320   42.3016   20.4105 C.3   5886  UNL5886     0.0000
   5934 C           5.0975   68.7846   46.2412 C.3   5887  UNL5887     0.0000
   5935 C          20.4105   61.5542   68.7846 C.3   5888  UNL5888     0.0000
   5936 C          46.2412   17.1197   42.3016 C.3   5889  UNL5889     0.0000
   5937 C          64.8450   49.5320   86.7361 C.3   5890  UNL5890     0.0000
   5938 C           1.8067    5.0975   24.3501 C.3   5891  UNL5891     0.0000
   5939 C          42.6278    2.1329   27.3148 C.3   5892  UNL5892     0.0000
   5940 C          68.4584   64.5189   71.7493 C.3   5893  UNL5893     0.0000
   5941 C          87.0623   20.0844   39.3370 C.3   5894  UNL5894     0.0000
   5942 C          24.0240   46.5674   83.7715 C.3   5895  UNL5895     0.0000
   5943 C          46.5674   39.3370   68.4584 C.3   5896  UNL5896     0.0000
   5944 C          20.0844   83.7715   42.6278 C.3   5897  UNL5897     0.0000
   5945 C          64.5189   27.3148   24.0240 C.3   5898  UNL5898     0.0000
   5946 C           2.1329   71.7493   87.0623 C.3   5899  UNL5899     0.0000
   5947 C          83.7715   87.0623   64.5189 C.3   5900  UNL5900     0.0000
   5948 C          39.3370   24.0240    2.1329 C.3   5901  UNL5901     0.0000
   5949 C          71.7493   42.6278   46.5674 C.3   5902  UNL5902     0.0000
   5950 C          27.3148   68.4584   20.0844 C.3   5903  UNL5903     0.0000
   5951 C          45.5409   88.0336   27.3148 C.3   5904  UNL5904     0.0000
   5952 C           1.1064   67.4871   83.7715 C.3   5905  UNL5905     0.0000
   5953 C          65.5453   43.5991   39.3370 C.3   5906  UNL5906     0.0000
   5954 C          71.7493   21.1108   23.0526 C.3   5907  UNL5907     0.0000
   5955 C          27.3148   45.5409   88.0336 C.3   5908  UNL5908     0.0000
   5956 C          83.7715    1.1064   67.4871 C.3   5909  UNL5909     0.0000
   5957 C          39.3370   65.5453   43.5991 C.3   5910  UNL5910     0.0000
   5958 C          23.0526   71.7493   21.1108 C.3   5911  UNL5911     0.0000
   5959 C          88.0336   27.3148   45.5409 C.3   5912  UNL5912     0.0000
   5960 C          67.4871   83.7715    1.1064 C.3   5913  UNL5913     0.0000
   5961 C          43.5991   39.3370   65.5453 C.3   5914  UNL5914     0.0000
   5962 C           0.8354   43.3281   61.5542 C.3   5915  UNL5915     0.0000
   5963 C          65.8164   67.7582   17.1197 C.3   5916  UNL5916     0.0000
   5964 C          45.2699   23.3237   49.5320 C.3   5917  UNL5917     0.0000
   5965 C          21.3819   87.7626    5.0975 C.3   5918  UNL5918     0.0000
   5966 C          87.7626    5.0975   21.3819 C.3   5919  UNL5919     0.0000
   5967 C          23.3237   49.5320   45.2699 C.3   5920  UNL5920     0.0000
   5968 C          67.7582   17.1197   65.8164 C.3   5921  UNL5921     0.0000
   5969 C          43.3281   61.5542    0.8354 C.3   5922  UNL5922     0.0000
   5970 C          49.5320   45.2699   23.3237 C.3   5923  UNL5923     0.0000
   5971 C           5.0975   21.3819   87.7626 C.3   5924  UNL5924     0.0000
   5972 C          61.5542    0.8354   43.3281 C.3   5925  UNL5925     0.0000
   5973 C          17.1197   65.8164   67.7582 C.3   5926  UNL5926     0.0000
   5974 C          67.7582   65.8164   17.1197 C.3   5927  UNL5927     0.0000
   5975 C          43.3281    0.8354   61.5542 C.3   5928  UNL5928     0.0000
   5976 C          87.7626   21.3819    5.0975 C.3   5929  UNL5929     0.0000
   5977 C          23.3237   45.2699   49.5320 C.3   5930  UNL5930     0.0000
   5978 C          17.1197   67.7582   65.8164 C.3   5931  UNL5931     0.0000
   5979 C          61.5542   43.3281    0.8354 C.3   5932  UNL5932     0.0000
   5980 C           5.0975   87.7626   21.3819 C.3   5933  UNL5933     0.0000
   5981 C          49.5320   23.3237   45.2699 C.3   5934  UNL5934     0.0000
   5982 C          65.8164   17.1197   67.7582 C.3   5935  UNL5935     0.0000
   5983 C           0.8354   61.5542   43.3281 C.3   5936  UNL5936     0.0000
   5984 C          21.3819    5.0975   87.7626 C.3   5937  UNL5937     0.0000
   5985 C          45.2699   49.5320   23.3237 C.3   5938  UNL5938     0.0000
   5986 C          88.0336   45.5409   27.3148 C.3   5939  UNL5939     0.0000
   5987 C          23.0526   21.1108   71.7493 C.3   5940  UNL5940     0.0000
   5988 C          43.5991   65.5453   39.3370 C.3   5941  UNL5941     0.0000
   5989 C          67.4871    1.1064   83.7715 C.3   5942  UNL5942     0.0000
   5990 C           1.1064   83.7715   67.4871 C.3   5943  UNL5943     0.0000
   5991 C          65.5453   39.3370   43.5991 C.3   5944  UNL5944     0.0000
   5992 C          21.1108   71.7493   23.0526 C.3   5945  UNL5945     0.0000
   5993 C          45.5409   27.3148   88.0336 C.3   5946  UNL5946     0.0000
   5994 C          39.3370   43.5991   65.5453 C.3   5947  UNL5947     0.0000
   5995 C          83.7715   67.4871    1.1064 C.3   5948  UNL5948     0.0000
   5996 C          27.3148   88.0336   45.5409 C.3   5949  UNL5949     0.0000
   5997 C          71.7493   23.0526   21.1108 C.3   5950  UNL5950     0.0000
   5998 C          21.1108   67.4871   27.3148 C.3   5951  UNL5951     0.0000
   5999 C          45.5409   43.5991   71.7493 C.3   5952  UNL5952     0.0000
   6000 C           1.1064   23.0526   39.3370 C.3   5953  UNL5953     0.0000
   6001 C          65.5453   88.0336   83.7715 C.3   5954  UNL5954     0.0000
   6002 C          71.7493   65.5453   67.4871 C.3   5955  UNL5955     0.0000
   6003 C          27.3148    1.1064   43.5991 C.3   5956  UNL5956     0.0000
   6004 C          83.7715   45.5409   23.0526 C.3   5957  UNL5957     0.0000
   6005 C          39.3370   21.1108   88.0336 C.3   5958  UNL5958     0.0000
   6006 C          23.0526   27.3148   65.5453 C.3   5959  UNL5959     0.0000
   6007 C          88.0336   71.7493    1.1064 C.3   5960  UNL5960     0.0000
   6008 C          67.4871   39.3370   45.5409 C.3   5961  UNL5961     0.0000
   6009 C          43.5991   83.7715   21.1108 C.3   5962  UNL5962     0.0000
   6010 C           0.8354   87.7626   17.1197 C.3   5963  UNL5963     0.0000
   6011 C          65.8164   23.3237   61.5542 C.3   5964  UNL5964     0.0000
   6012 C          45.2699   67.7582    5.0975 C.3   5965  UNL5965     0.0000
   6013 C          21.3819   43.3281   49.5320 C.3   5966  UNL5966     0.0000
   6014 C          87.7626   49.5320   65.8164 C.3   5967  UNL5967     0.0000
   6015 C          23.3237    5.0975    0.8354 C.3   5968  UNL5968     0.0000
   6016 C          67.7582   61.5542   21.3819 C.3   5969  UNL5969     0.0000
   6017 C          43.3281   17.1197   45.2699 C.3   5970  UNL5970     0.0000
   6018 C          49.5320    0.8354   67.7582 C.3   5971  UNL5971     0.0000
   6019 C           5.0975   65.8164   43.3281 C.3   5972  UNL5972     0.0000
   6020 C          61.5542   45.2699   87.7626 C.3   5973  UNL5973     0.0000
   6021 C          17.1197   21.3819   23.3237 C.3   5974  UNL5974     0.0000
   6022 C          67.7582   21.3819   61.5542 C.3   5975  UNL5975     0.0000
   6023 C          43.3281   45.2699   17.1197 C.3   5976  UNL5976     0.0000
   6024 C          87.7626   65.8164   49.5320 C.3   5977  UNL5977     0.0000
   6025 C          23.3237    0.8354    5.0975 C.3   5978  UNL5978     0.0000
   6026 C          17.1197   23.3237   21.3819 C.3   5979  UNL5979     0.0000
   6027 C          61.5542   87.7626   45.2699 C.3   5980  UNL5980     0.0000
   6028 C           5.0975   43.3281   65.8164 C.3   5981  UNL5981     0.0000
   6029 C          49.5320   67.7582    0.8354 C.3   5982  UNL5982     0.0000
   6030 C          65.8164   61.5542   23.3237 C.3   5983  UNL5983     0.0000
   6031 C           0.8354   17.1197   87.7626 C.3   5984  UNL5984     0.0000
   6032 C          21.3819   49.5320   43.3281 C.3   5985  UNL5985     0.0000
   6033 C          45.2699    5.0975   67.7582 C.3   5986  UNL5986     0.0000
   6034 C          88.0336    1.1064   71.7493 C.3   5987  UNL5987     0.0000
   6035 C          23.0526   65.5453   27.3148 C.3   5988  UNL5988     0.0000
   6036 C          43.5991   21.1108   83.7715 C.3   5989  UNL5989     0.0000
   6037 C          67.4871   45.5409   39.3370 C.3   5990  UNL5990     0.0000
   6038 C           1.1064   39.3370   23.0526 C.3   5991  UNL5991     0.0000
   6039 C          65.5453   83.7715   88.0336 C.3   5992  UNL5992     0.0000
   6040 C          21.1108   27.3148   67.4871 C.3   5993  UNL5993     0.0000
   6041 C          45.5409   71.7493   43.5991 C.3   5994  UNL5994     0.0000
   6042 C          39.3370   88.0336   21.1108 C.3   5995  UNL5995     0.0000
   6043 C          83.7715   23.0526   45.5409 C.3   5996  UNL5996     0.0000
   6044 C          27.3148   43.5991    1.1064 C.3   5997  UNL5997     0.0000
   6045 C          71.7493   67.4871   65.5453 C.3   5998  UNL5998     0.0000
   6046 C          65.5453   23.0526   27.3148 C.3   5999  UNL5999     0.0000
   6047 C           1.1064   88.0336   71.7493 C.3   6000  UNL6000     0.0000
   6048 C          45.5409   67.4871   39.3370 C.3   6001  UNL6001     0.0000
   6049 C          21.1108   43.5991   83.7715 C.3   6002  UNL6002     0.0000
   6050 C          27.3148   21.1108   67.4871 C.3   6003  UNL6003     0.0000
   6051 C          71.7493   45.5409   43.5991 C.3   6004  UNL6004     0.0000
   6052 C          39.3370    1.1064   23.0526 C.3   6005  UNL6005     0.0000
   6053 C          83.7715   65.5453   88.0336 C.3   6006  UNL6006     0.0000
   6054 C          67.4871   71.7493   65.5453 C.3   6007  UNL6007     0.0000
   6055 C          43.5991   27.3148    1.1064 C.3   6008  UNL6008     0.0000
   6056 C          23.0526   83.7715   45.5409 C.3   6009  UNL6009     0.0000
   6057 C          88.0336   39.3370   21.1108 C.3   6010  UNL6010     0.0000
   6058 C          45.2699   43.3281   17.1197 C.3   6011  UNL6011     0.0000
   6059 C          21.3819   67.7582   61.5542 C.3   6012  UNL6012     0.0000
   6060 C           0.8354   23.3237    5.0975 C.3   6013  UNL6013     0.0000
   6061 C          65.8164   87.7626   49.5320 C.3   6014  UNL6014     0.0000
   6062 C          43.3281    5.0975   65.8164 C.3   6015  UNL6015     0.0000
   6063 C          67.7582   49.5320    0.8354 C.3   6016  UNL6016     0.0000
   6064 C          23.3237   17.1197   21.3819 C.3   6017  UNL6017     0.0000
   6065 C          87.7626   61.5542   45.2699 C.3   6018  UNL6018     0.0000
   6066 C           5.0975   45.2699   67.7582 C.3   6019  UNL6019     0.0000
   6067 C          49.5320   21.3819   43.3281 C.3   6020  UNL6020     0.0000
   6068 C          17.1197    0.8354   87.7626 C.3   6021  UNL6021     0.0000
   6069 C          61.5542   65.8164   23.3237 C.3   6022  UNL6022     0.0000
   6070 C          23.3237   65.8164   61.5542 C.3   6023  UNL6023     0.0000
   6071 C          87.7626    0.8354   17.1197 C.3   6024  UNL6024     0.0000
   6072 C          43.3281   21.3819   49.5320 C.3   6025  UNL6025     0.0000
   6073 C          67.7582   45.2699    5.0975 C.3   6026  UNL6026     0.0000
   6074 C          61.5542   67.7582   21.3819 C.3   6027  UNL6027     0.0000
   6075 C          17.1197   43.3281   45.2699 C.3   6028  UNL6028     0.0000
   6076 C          49.5320   87.7626   65.8164 C.3   6029  UNL6029     0.0000
   6077 C           5.0975   23.3237    0.8354 C.3   6030  UNL6030     0.0000
   6078 C          21.3819   17.1197   23.3237 C.3   6031  UNL6031     0.0000
   6079 C          45.2699   61.5542   87.7626 C.3   6032  UNL6032     0.0000
   6080 C          65.8164    5.0975   43.3281 C.3   6033  UNL6033     0.0000
   6081 C           0.8354   49.5320   67.7582 C.3   6034  UNL6034     0.0000
   6082 C          43.5991   45.5409   71.7493 C.3   6035  UNL6035     0.0000
   6083 C          67.4871   21.1108   27.3148 C.3   6036  UNL6036     0.0000
   6084 C          88.0336   65.5453   83.7715 C.3   6037  UNL6037     0.0000
   6085 C          23.0526    1.1064   39.3370 C.3   6038  UNL6038     0.0000
   6086 C          45.5409   83.7715   23.0526 C.3   6039  UNL6039     0.0000
   6087 C          21.1108   39.3370   88.0336 C.3   6040  UNL6040     0.0000
   6088 C          65.5453   71.7493   67.4871 C.3   6041  UNL6041     0.0000
   6089 C           1.1064   27.3148   43.5991 C.3   6042  UNL6042     0.0000
   6090 C          83.7715   43.5991   21.1108 C.3   6043  UNL6043     0.0000
   6091 C          39.3370   67.4871   45.5409 C.3   6044  UNL6044     0.0000
   6092 C          71.7493   88.0336    1.1064 C.3   6045  UNL6045     0.0000
   6093 C          27.3148   23.0526   65.5453 C.3   6046  UNL6046     0.0000
   6094 C          65.5453   67.4871   71.7493 C.3   6047  UNL6047     0.0000
   6095 C           1.1064   43.5991   27.3148 C.3   6048  UNL6048     0.0000
   6096 C          45.5409   23.0526   83.7715 C.3   6049  UNL6049     0.0000
   6097 C          21.1108   88.0336   39.3370 C.3   6050  UNL6050     0.0000
   6098 C          27.3148   65.5453   23.0526 C.3   6051  UNL6051     0.0000
   6099 C          71.7493    1.1064   88.0336 C.3   6052  UNL6052     0.0000
   6100 C          39.3370   45.5409   67.4871 C.3   6053  UNL6053     0.0000
   6101 C          83.7715   21.1108   43.5991 C.3   6054  UNL6054     0.0000
   6102 C          67.4871   27.3148   21.1108 C.3   6055  UNL6055     0.0000
   6103 C          43.5991   71.7493   45.5409 C.3   6056  UNL6056     0.0000
   6104 C          23.0526   39.3370    1.1064 C.3   6057  UNL6057     0.0000
   6105 C          88.0336   83.7715   65.5453 C.3   6058  UNL6058     0.0000
   6106 C          45.2699   87.7626   61.5542 C.3   6059  UNL6059     0.0000
   6107 C          21.3819   23.3237   17.1197 C.3   6060  UNL6060     0.0000
   6108 C           0.8354   67.7582   49.5320 C.3   6061  UNL6061     0.0000
   6109 C          65.8164   43.3281    5.0975 C.3   6062  UNL6062     0.0000
   6110 C          43.3281   49.5320   21.3819 C.3   6063  UNL6063     0.0000
   6111 C          67.7582    5.0975   45.2699 C.3   6064  UNL6064     0.0000
   6112 C          23.3237   61.5542   65.8164 C.3   6065  UNL6065     0.0000
   6113 C          87.7626   17.1197    0.8354 C.3   6066  UNL6066     0.0000
   6114 C           5.0975    0.8354   23.3237 C.3   6067  UNL6067     0.0000
   6115 C          49.5320   65.8164   87.7626 C.3   6068  UNL6068     0.0000
   6116 C          17.1197   45.2699   43.3281 C.3   6069  UNL6069     0.0000
   6117 C          61.5542   21.3819   67.7582 C.3   6070  UNL6070     0.0000
   6118 C          23.3237   21.3819   17.1197 C.3   6071  UNL6071     0.0000
   6119 C          87.7626   45.2699   61.5542 C.3   6072  UNL6072     0.0000
   6120 C          43.3281   65.8164    5.0975 C.3   6073  UNL6073     0.0000
   6121 C          67.7582    0.8354   49.5320 C.3   6074  UNL6074     0.0000
   6122 C          61.5542   23.3237   65.8164 C.3   6075  UNL6075     0.0000
   6123 C          17.1197   87.7626    0.8354 C.3   6076  UNL6076     0.0000
   6124 C          49.5320   43.3281   21.3819 C.3   6077  UNL6077     0.0000
   6125 C           5.0975   67.7582   45.2699 C.3   6078  UNL6078     0.0000
   6126 C          21.3819   61.5542   67.7582 C.3   6079  UNL6079     0.0000
   6127 C          45.2699   17.1197   43.3281 C.3   6080  UNL6080     0.0000
   6128 C          65.8164   49.5320   87.7626 C.3   6081  UNL6081     0.0000
   6129 C           0.8354    5.0975   23.3237 C.3   6082  UNL6082     0.0000
   6130 C          43.5991    1.1064   27.3148 C.3   6083  UNL6083     0.0000
   6131 C          67.4871   65.5453   71.7493 C.3   6084  UNL6084     0.0000
   6132 C          88.0336   21.1108   39.3370 C.3   6085  UNL6085     0.0000
   6133 C          23.0526   45.5409   83.7715 C.3   6086  UNL6086     0.0000
   6134 C          45.5409   39.3370   67.4871 C.3   6087  UNL6087     0.0000
   6135 C          21.1108   83.7715   43.5991 C.3   6088  UNL6088     0.0000
   6136 C          65.5453   27.3148   23.0526 C.3   6089  UNL6089     0.0000
   6137 C           1.1064   71.7493   88.0336 C.3   6090  UNL6090     0.0000
   6138 C          83.7715   88.0336   65.5453 C.3   6091  UNL6091     0.0000
   6139 C          39.3370   23.0526    1.1064 C.3   6092  UNL6092     0.0000
   6140 C          71.7493   43.5991   45.5409 C.3   6093  UNL6093     0.0000
   6141 C          27.3148   67.4871   21.1108 C.3   6094  UNL6094     0.0000
   6142 C          44.8735   88.3073   28.5634 C.3   6095  UNL6095     0.0000
   6143 C           0.4390   67.2134   82.5229 C.3   6096  UNL6096     0.0000
   6144 C          66.2127   43.8728   38.0884 C.3   6097  UNL6097     0.0000
   6145 C          72.9979   21.7782   22.7789 C.3   6098  UNL6098     0.0000
   6146 C          28.5634   44.8735   88.3073 C.3   6099  UNL6099     0.0000
   6147 C          82.5229    0.4390   67.2134 C.3   6100  UNL6100     0.0000
   6148 C          38.0884   66.2127   43.8728 C.3   6101  UNL6101     0.0000
   6149 C          22.7789   72.9979   21.7782 C.3   6102  UNL6102     0.0000
   6150 C          88.3073   28.5634   44.8735 C.3   6103  UNL6103     0.0000
   6151 C          67.2134   82.5229    0.4390 C.3   6104  UNL6104     0.0000
   6152 C          43.8728   38.0884   66.2127 C.3   6105  UNL6105     0.0000
   6153 C           0.5617   43.9955   60.3056 C.3   6106  UNL6106     0.0000
   6154 C          66.0901   67.0908   15.8711 C.3   6107  UNL6107     0.0000
   6155 C          44.9961   22.6563   50.7806 C.3   6108  UNL6108     0.0000
   6156 C          21.6556   88.4300    6.3461 C.3   6109  UNL6109     0.0000
   6157 C          88.4300    6.3461   21.6556 C.3   6110  UNL6110     0.0000
   6158 C          22.6563   50.7806   44.9961 C.3   6111  UNL6111     0.0000
   6159 C          67.0908   15.8711   66.0901 C.3   6112  UNL6112     0.0000
   6160 C          43.9955   60.3056    0.5617 C.3   6113  UNL6113     0.0000
   6161 C          50.7806   44.9961   22.6563 C.3   6114  UNL6114     0.0000
   6162 C           6.3461   21.6556   88.4300 C.3   6115  UNL6115     0.0000
   6163 C          60.3056    0.5617   43.9955 C.3   6116  UNL6116     0.0000
   6164 C          15.8711   66.0901   67.0908 C.3   6117  UNL6117     0.0000
   6165 C          67.0908   66.0901   15.8711 C.3   6118  UNL6118     0.0000
   6166 C          43.9955    0.5617   60.3056 C.3   6119  UNL6119     0.0000
   6167 C          88.4300   21.6556    6.3461 C.3   6120  UNL6120     0.0000
   6168 C          22.6563   44.9961   50.7806 C.3   6121  UNL6121     0.0000
   6169 C          15.8711   67.0908   66.0901 C.3   6122  UNL6122     0.0000
   6170 C          60.3056   43.9955    0.5617 C.3   6123  UNL6123     0.0000
   6171 C           6.3461   88.4300   21.6556 C.3   6124  UNL6124     0.0000
   6172 C          50.7806   22.6563   44.9961 C.3   6125  UNL6125     0.0000
   6173 C          66.0901   15.8711   67.0908 C.3   6126  UNL6126     0.0000
   6174 C           0.5617   60.3056   43.9955 C.3   6127  UNL6127     0.0000
   6175 C          21.6556    6.3461   88.4300 C.3   6128  UNL6128     0.0000
   6176 C          44.9961   50.7806   22.6563 C.3   6129  UNL6129     0.0000
   6177 C          88.3073   44.8735   28.5634 C.3   6130  UNL6130     0.0000
   6178 C          22.7789   21.7782   72.9979 C.3   6131  UNL6131     0.0000
   6179 C          43.8728   66.2127   38.0884 C.3   6132  UNL6132     0.0000
   6180 C          67.2134    0.4390   82.5229 C.3   6133  UNL6133     0.0000
   6181 C           0.4390   82.5229   67.2134 C.3   6134  UNL6134     0.0000
   6182 C          66.2127   38.0884   43.8728 C.3   6135  UNL6135     0.0000
   6183 C          21.7782   72.9979   22.7789 C.3   6136  UNL6136     0.0000
   6184 C          44.8735   28.5634   88.3073 C.3   6137  UNL6137     0.0000
   6185 C          38.0884   43.8728   66.2127 C.3   6138  UNL6138     0.0000
   6186 C          82.5229   67.2134    0.4390 C.3   6139  UNL6139     0.0000
   6187 C          28.5634   88.3073   44.8735 C.3   6140  UNL6140     0.0000
   6188 C          72.9979   22.7789   21.7782 C.3   6141  UNL6141     0.0000
   6189 C          21.7782   67.2134   28.5634 C.3   6142  UNL6142     0.0000
   6190 C          44.8735   43.8728   72.9979 C.3   6143  UNL6143     0.0000
   6191 C           0.4390   22.7789   38.0884 C.3   6144  UNL6144     0.0000
   6192 C          66.2127   88.3073   82.5229 C.3   6145  UNL6145     0.0000
   6193 C          72.9979   66.2127   67.2134 C.3   6146  UNL6146     0.0000
   6194 C          28.5634    0.4390   43.8728 C.3   6147  UNL6147     0.0000
   6195 C          82.5229   44.8735   22.7789 C.3   6148  UNL6148     0.0000
   6196 C          38.0884   21.7782   88.3073 C.3   6149  UNL6149     0.0000
   6197 C          22.7789   28.5634   66.2127 C.3   6150  UNL6150     0.0000
   6198 C          88.3073   72.9979    0.4390 C.3   6151  UNL6151     0.0000
   6199 C          67.2134   38.0884   44.8735 C.3   6152  UNL6152     0.0000
   6200 C          43.8728   82.5229   21.7782 C.3   6153  UNL6153     0.0000
   6201 C           0.5617   88.4300   15.8711 C.3   6154  UNL6154     0.0000
   6202 C          66.0901   22.6563   60.3056 C.3   6155  UNL6155     0.0000
   6203 C          44.9961   67.0908    6.3461 C.3   6156  UNL6156     0.0000
   6204 C          21.6556   43.9955   50.7806 C.3   6157  UNL6157     0.0000
   6205 C          88.4300   50.7806   66.0901 C.3   6158  UNL6158     0.0000
   6206 C          22.6563    6.3461    0.5617 C.3   6159  UNL6159     0.0000
   6207 C          67.0908   60.3056   21.6556 C.3   6160  UNL6160     0.0000
   6208 C          43.9955   15.8711   44.9961 C.3   6161  UNL6161     0.0000
   6209 C          50.7806    0.5617   67.0908 C.3   6162  UNL6162     0.0000
   6210 C           6.3461   66.0901   43.9955 C.3   6163  UNL6163     0.0000
   6211 C          60.3056   44.9961   88.4300 C.3   6164  UNL6164     0.0000
   6212 C          15.8711   21.6556   22.6563 C.3   6165  UNL6165     0.0000
   6213 C          67.0908   21.6556   60.3056 C.3   6166  UNL6166     0.0000
   6214 C          43.9955   44.9961   15.8711 C.3   6167  UNL6167     0.0000
   6215 C          88.4300   66.0901   50.7806 C.3   6168  UNL6168     0.0000
   6216 C          22.6563    0.5617    6.3461 C.3   6169  UNL6169     0.0000
   6217 C          15.8711   22.6563   21.6556 C.3   6170  UNL6170     0.0000
   6218 C          60.3056   88.4300   44.9961 C.3   6171  UNL6171     0.0000
   6219 C           6.3461   43.9955   66.0901 C.3   6172  UNL6172     0.0000
   6220 C          50.7806   67.0908    0.5617 C.3   6173  UNL6173     0.0000
   6221 C          66.0901   60.3056   22.6563 C.3   6174  UNL6174     0.0000
   6222 C           0.5617   15.8711   88.4300 C.3   6175  UNL6175     0.0000
   6223 C          21.6556   50.7806   43.9955 C.3   6176  UNL6176     0.0000
   6224 C          44.9961    6.3461   67.0908 C.3   6177  UNL6177     0.0000
   6225 C          88.3073    0.4390   72.9979 C.3   6178  UNL6178     0.0000
   6226 C          22.7789   66.2127   28.5634 C.3   6179  UNL6179     0.0000
   6227 C          43.8728   21.7782   82.5229 C.3   6180  UNL6180     0.0000
   6228 C          67.2134   44.8735   38.0884 C.3   6181  UNL6181     0.0000
   6229 C           0.4390   38.0884   22.7789 C.3   6182  UNL6182     0.0000
   6230 C          66.2127   82.5229   88.3073 C.3   6183  UNL6183     0.0000
   6231 C          21.7782   28.5634   67.2134 C.3   6184  UNL6184     0.0000
   6232 C          44.8735   72.9979   43.8728 C.3   6185  UNL6185     0.0000
   6233 C          38.0884   88.3073   21.7782 C.3   6186  UNL6186     0.0000
   6234 C          82.5229   22.7789   44.8735 C.3   6187  UNL6187     0.0000
   6235 C          28.5634   43.8728    0.4390 C.3   6188  UNL6188     0.0000
   6236 C          72.9979   67.2134   66.2127 C.3   6189  UNL6189     0.0000
   6237 C          66.2127   22.7789   28.5634 C.3   6190  UNL6190     0.0000
   6238 C           0.4390   88.3073   72.9979 C.3   6191  UNL6191     0.0000
   6239 C          44.8735   67.2134   38.0884 C.3   6192  UNL6192     0.0000
   6240 C          21.7782   43.8728   82.5229 C.3   6193  UNL6193     0.0000
   6241 C          28.5634   21.7782   67.2134 C.3   6194  UNL6194     0.0000
   6242 C          72.9979   44.8735   43.8728 C.3   6195  UNL6195     0.0000
   6243 C          38.0884    0.4390   22.7789 C.3   6196  UNL6196     0.0000
   6244 C          82.5229   66.2127   88.3073 C.3   6197  UNL6197     0.0000
   6245 C          67.2134   72.9979   66.2127 C.3   6198  UNL6198     0.0000
   6246 C          43.8728   28.5634    0.4390 C.3   6199  UNL6199     0.0000
   6247 C          22.7789   82.5229   44.8735 C.3   6200  UNL6200     0.0000
   6248 C          88.3073   38.0884   21.7782 C.3   6201  UNL6201     0.0000
   6249 C          44.9961   43.9955   15.8711 C.3   6202  UNL6202     0.0000
   6250 C          21.6556   67.0908   60.3056 C.3   6203  UNL6203     0.0000
   6251 C           0.5617   22.6563    6.3461 C.3   6204  UNL6204     0.0000
   6252 C          66.0901   88.4300   50.7806 C.3   6205  UNL6205     0.0000
   6253 C          43.9955    6.3461   66.0901 C.3   6206  UNL6206     0.0000
   6254 C          67.0908   50.7806    0.5617 C.3   6207  UNL6207     0.0000
   6255 C          22.6563   15.8711   21.6556 C.3   6208  UNL6208     0.0000
   6256 C          88.4300   60.3056   44.9961 C.3   6209  UNL6209     0.0000
   6257 C           6.3461   44.9961   67.0908 C.3   6210  UNL6210     0.0000
   6258 C          50.7806   21.6556   43.9955 C.3   6211  UNL6211     0.0000
   6259 C          15.8711    0.5617   88.4300 C.3   6212  UNL6212     0.0000
   6260 C          60.3056   66.0901   22.6563 C.3   6213  UNL6213     0.0000
   6261 C          22.6563   66.0901   60.3056 C.3   6214  UNL6214     0.0000
   6262 C          88.4300    0.5617   15.8711 C.3   6215  UNL6215     0.0000
   6263 C          43.9955   21.6556   50.7806 C.3   6216  UNL6216     0.0000
   6264 C          67.0908   44.9961    6.3461 C.3   6217  UNL6217     0.0000
   6265 C          60.3056   67.0908   21.6556 C.3   6218  UNL6218     0.0000
   6266 C          15.8711   43.9955   44.9961 C.3   6219  UNL6219     0.0000
   6267 C          50.7806   88.4300   66.0901 C.3   6220  UNL6220     0.0000
   6268 C           6.3461   22.6563    0.5617 C.3   6221  UNL6221     0.0000
   6269 C          21.6556   15.8711   22.6563 C.3   6222  UNL6222     0.0000
   6270 C          44.9961   60.3056   88.4300 C.3   6223  UNL6223     0.0000
   6271 C          66.0901    6.3461   43.9955 C.3   6224  UNL6224     0.0000
   6272 C           0.5617   50.7806   67.0908 C.3   6225  UNL6225     0.0000
   6273 C          43.8728   44.8735   72.9979 C.3   6226  UNL6226     0.0000
   6274 C          67.2134   21.7782   28.5634 C.3   6227  UNL6227     0.0000
   6275 C          88.3073   66.2127   82.5229 C.3   6228  UNL6228     0.0000
   6276 C          22.7789    0.4390   38.0884 C.3   6229  UNL6229     0.0000
   6277 C          44.8735   82.5229   22.7789 C.3   6230  UNL6230     0.0000
   6278 C          21.7782   38.0884   88.3073 C.3   6231  UNL6231     0.0000
   6279 C          66.2127   72.9979   67.2134 C.3   6232  UNL6232     0.0000
   6280 C           0.4390   28.5634   43.8728 C.3   6233  UNL6233     0.0000
   6281 C          82.5229   43.8728   21.7782 C.3   6234  UNL6234     0.0000
   6282 C          38.0884   67.2134   44.8735 C.3   6235  UNL6235     0.0000
   6283 C          72.9979   88.3073    0.4390 C.3   6236  UNL6236     0.0000
   6284 C          28.5634   22.7789   66.2127 C.3   6237  UNL6237     0.0000
   6285 C          66.2127   67.2134   72.9979 C.3   6238  UNL6238     0.0000
   6286 C           0.4390   43.8728   28.5634 C.3   6239  UNL6239     0.0000
   6287 C          44.8735   22.7789   82.5229 C.3   6240  UNL6240     0.0000
   6288 C          21.7782   88.3073   38.0884 C.3   6241  UNL6241     0.0000
   6289 C          28.5634   66.2127   22.7789 C.3   6242  UNL6242     0.0000
   6290 C          72.9979    0.4390   88.3073 C.3   6243  UNL6243     0.0000
   6291 C          38.0884   44.8735   67.2134 C.3   6244  UNL6244     0.0000
   6292 C          82.5229   21.7782   43.8728 C.3   6245  UNL6245     0.0000
   6293 C          67.2134   28.5634   21.7782 C.3   6246  UNL6246     0.0000
   6294 C          43.8728   72.9979   44.8735 C.3   6247  UNL6247     0.0000
   6295 C          22.7789   38.0884    0.4390 C.3   6248  UNL6248     0.0000
   6296 C          88.3073   82.5229   66.2127 C.3   6249  UNL6249     0.0000
   6297 C          44.9961   88.4300   60.3056 C.3   6250  UNL6250     0.0000
   6298 C          21.6556   22.6563   15.8711 C.3   6251  UNL6251     0.0000
   6299 C           0.5617   67.0908   50.7806 C.3   6252  UNL6252     0.0000
   6300 C          66.0901   43.9955    6.3461 C.3   6253  UNL6253     0.0000
   6301 C          43.9955   50.7806   21.6556 C.3   6254  UNL6254     0.0000
   6302 C          67.0908    6.3461   44.9961 C.3   6255  UNL6255     0.0000
   6303 C          22.6563   60.3056   66.0901 C.3   6256  UNL6256     0.0000
   6304 C          88.4300   15.8711    0.5617 C.3   6257  UNL6257     0.0000
   6305 C           6.3461    0.5617   22.6563 C.3   6258  UNL6258     0.0000
   6306 C          50.7806   66.0901   88.4300 C.3   6259  UNL6259     0.0000
   6307 C          15.8711   44.9961   43.9955 C.3   6260  UNL6260     0.0000
   6308 C          60.3056   21.6556   67.0908 C.3   6261  UNL6261     0.0000
   6309 C          22.6563   21.6556   15.8711 C.3   6262  UNL6262     0.0000
   6310 C          88.4300   44.9961   60.3056 C.3   6263  UNL6263     0.0000
   6311 C          43.9955   66.0901    6.3461 C.3   6264  UNL6264     0.0000
   6312 C          67.0908    0.5617   50.7806 C.3   6265  UNL6265     0.0000
   6313 C          60.3056   22.6563   66.0901 C.3   6266  UNL6266     0.0000
   6314 C          15.8711   88.4300    0.5617 C.3   6267  UNL6267     0.0000
   6315 C          50.7806   43.9955   21.6556 C.3   6268  UNL6268     0.0000
   6316 C           6.3461   67.0908   44.9961 C.3   6269  UNL6269     0.0000
   6317 C          21.6556   60.3056   67.0908 C.3   6270  UNL6270     0.0000
   6318 C          44.9961   15.8711   43.9955 C.3   6271  UNL6271     0.0000
   6319 C          66.0901   50.7806   88.4300 C.3   6272  UNL6272     0.0000
   6320 C           0.5617    6.3461   22.6563 C.3   6273  UNL6273     0.0000
   6321 C          43.8728    0.4390   28.5634 C.3   6274  UNL6274     0.0000
   6322 C          67.2134   66.2127   72.9979 C.3   6275  UNL6275     0.0000
   6323 C          88.3073   21.7782   38.0884 C.3   6276  UNL6276     0.0000
   6324 C          22.7789   44.8735   82.5229 C.3   6277  UNL6277     0.0000
   6325 C          44.8735   38.0884   67.2134 C.3   6278  UNL6278     0.0000
   6326 C          21.7782   82.5229   43.8728 C.3   6279  UNL6279     0.0000
   6327 C          66.2127   28.5634   22.7789 C.3   6280  UNL6280     0.0000
   6328 C           0.4390   72.9979   88.3073 C.3   6281  UNL6281     0.0000
   6329 C          82.5229   88.3073   66.2127 C.3   6282  UNL6282     0.0000
   6330 C          38.0884   22.7789    0.4390 C.3   6283  UNL6283     0.0000
   6331 C          72.9979   43.8728   44.8735 C.3   6284  UNL6284     0.0000
   6332 C          28.5634   67.2134   21.7782 C.3   6285  UNL6285     0.0000
   6333 C          60.2674   26.8660   85.2458 C.3   6286  UNL6286     0.0000
   6334 C          15.8329   39.7858   25.8404 C.3   6287  UNL6287     0.0000
   6335 C          50.8188   71.3005   70.2749 C.3   6288  UNL6288     0.0000
   6336 C          40.8113    6.3843   84.2203 C.3   6289  UNL6289     0.0000
   6337 C          85.2458   60.2674   26.8660 C.3   6290  UNL6290     0.0000
   6338 C          25.8404   15.8329   39.7858 C.3   6291  UNL6291     0.0000
   6339 C          70.2749   50.8188   71.3005 C.3   6292  UNL6292     0.0000
   6340 C          84.2203   40.8113    6.3843 C.3   6293  UNL6293     0.0000
   6341 C          26.8660   85.2458   60.2674 C.3   6294  UNL6294     0.0000
   6342 C          39.7858   25.8404   15.8329 C.3   6295  UNL6295     0.0000
   6343 C          71.3005   70.2749   50.8188 C.3   6296  UNL6296     0.0000
   6344 C          62.0030   28.6016    3.6232 C.3   6297  UNL6297     0.0000
   6345 C           4.6487   82.4846   48.0577 C.3   6298  UNL6298     0.0000
   6346 C          17.5685   38.0501   18.5941 C.3   6299  UNL6299     0.0000
   6347 C          49.0832   73.0361   63.0286 C.3   6300  UNL6300     0.0000
   6348 C          73.0361   63.0286   49.0832 C.3   6301  UNL6301     0.0000
   6349 C          38.0501   18.5941   17.5685 C.3   6302  UNL6302     0.0000
   6350 C          82.4846   48.0577    4.6487 C.3   6303  UNL6303     0.0000
   6351 C          28.6016    3.6232   62.0030 C.3   6304  UNL6304     0.0000
   6352 C          18.5941   17.5685   38.0501 C.3   6305  UNL6305     0.0000
   6353 C          63.0286   49.0832   73.0361 C.3   6306  UNL6306     0.0000
   6354 C           3.6232   62.0030   28.6016 C.3   6307  UNL6307     0.0000
   6355 C          48.0577    4.6487   82.4846 C.3   6308  UNL6308     0.0000
   6356 C          82.4846    4.6487   48.0577 C.3   6309  UNL6309     0.0000
   6357 C          28.6016   62.0030    3.6232 C.3   6310  UNL6310     0.0000
   6358 C          73.0361   49.0832   63.0286 C.3   6311  UNL6311     0.0000
   6359 C          38.0501   17.5685   18.5941 C.3   6312  UNL6312     0.0000
   6360 C          48.0577   82.4846    4.6487 C.3   6313  UNL6313     0.0000
   6361 C           3.6232   28.6016   62.0030 C.3   6314  UNL6314     0.0000
   6362 C          63.0286   73.0361   49.0832 C.3   6315  UNL6315     0.0000
   6363 C          18.5941   38.0501   17.5685 C.3   6316  UNL6316     0.0000
   6364 C           4.6487   48.0577   82.4846 C.3   6317  UNL6317     0.0000
   6365 C          62.0030    3.6232   28.6016 C.3   6318  UNL6318     0.0000
   6366 C          49.0832   63.0286   73.0361 C.3   6319  UNL6319     0.0000
   6367 C          17.5685   18.5941   38.0501 C.3   6320  UNL6320     0.0000
   6368 C          26.8660   60.2674   85.2458 C.3   6321  UNL6321     0.0000
   6369 C          84.2203    6.3843   40.8113 C.3   6322  UNL6322     0.0000
   6370 C          71.3005   50.8188   70.2749 C.3   6323  UNL6323     0.0000
   6371 C          39.7858   15.8329   25.8404 C.3   6324  UNL6324     0.0000
   6372 C          15.8329   25.8404   39.7858 C.3   6325  UNL6325     0.0000
   6373 C          50.8188   70.2749   71.3005 C.3   6326  UNL6326     0.0000
   6374 C           6.3843   40.8113   84.2203 C.3   6327  UNL6327     0.0000
   6375 C          60.2674   85.2458   26.8660 C.3   6328  UNL6328     0.0000
   6376 C          70.2749   71.3005   50.8188 C.3   6329  UNL6329     0.0000
   6377 C          25.8404   39.7858   15.8329 C.3   6330  UNL6330     0.0000
   6378 C          85.2458   26.8660   60.2674 C.3   6331  UNL6331     0.0000
   6379 C          40.8113   84.2203    6.3843 C.3   6332  UNL6332     0.0000
   6380 C           6.3843   39.7858   85.2458 C.3   6333  UNL6333     0.0000
   6381 C          60.2674   71.3005   40.8113 C.3   6334  UNL6334     0.0000
   6382 C          15.8329   84.2203   70.2749 C.3   6335  UNL6335     0.0000
   6383 C          50.8188   26.8660   25.8404 C.3   6336  UNL6336     0.0000
   6384 C          40.8113   50.8188   39.7858 C.3   6337  UNL6337     0.0000
   6385 C          85.2458   15.8329   71.3005 C.3   6338  UNL6338     0.0000
   6386 C          25.8404   60.2674   84.2203 C.3   6339  UNL6339     0.0000
   6387 C          70.2749    6.3843   26.8660 C.3   6340  UNL6340     0.0000
   6388 C          84.2203   85.2458   50.8188 C.3   6341  UNL6341     0.0000
   6389 C          26.8660   40.8113   15.8329 C.3   6342  UNL6342     0.0000
   6390 C          39.7858   70.2749   60.2674 C.3   6343  UNL6343     0.0000
   6391 C          71.3005   25.8404    6.3843 C.3   6344  UNL6344     0.0000
   6392 C          62.0030   73.0361   48.0577 C.3   6345  UNL6345     0.0000
   6393 C           4.6487   38.0501    3.6232 C.3   6346  UNL6346     0.0000
   6394 C          17.5685   82.4846   63.0286 C.3   6347  UNL6347     0.0000
   6395 C          49.0832   28.6016   18.5941 C.3   6348  UNL6348     0.0000
   6396 C          73.0361   18.5941    4.6487 C.3   6349  UNL6349     0.0000
   6397 C          38.0501   63.0286   62.0030 C.3   6350  UNL6350     0.0000
   6398 C          82.4846    3.6232   49.0832 C.3   6351  UNL6351     0.0000
   6399 C          28.6016   48.0577   17.5685 C.3   6352  UNL6352     0.0000
   6400 C          18.5941   62.0030   82.4846 C.3   6353  UNL6353     0.0000
   6401 C          63.0286    4.6487   28.6016 C.3   6354  UNL6354     0.0000
   6402 C           3.6232   17.5685   73.0361 C.3   6355  UNL6355     0.0000
   6403 C          48.0577   49.0832   38.0501 C.3   6356  UNL6356     0.0000
   6404 C          82.4846   49.0832    3.6232 C.3   6357  UNL6357     0.0000
   6405 C          28.6016   17.5685   48.0577 C.3   6358  UNL6358     0.0000
   6406 C          73.0361    4.6487   18.5941 C.3   6359  UNL6359     0.0000
   6407 C          38.0501   62.0030   63.0286 C.3   6360  UNL6360     0.0000
   6408 C          48.0577   38.0501   49.0832 C.3   6361  UNL6361     0.0000
   6409 C           3.6232   73.0361   17.5685 C.3   6362  UNL6362     0.0000
   6410 C          63.0286   28.6016    4.6487 C.3   6363  UNL6363     0.0000
   6411 C          18.5941   82.4846   62.0030 C.3   6364  UNL6364     0.0000
   6412 C           4.6487    3.6232   38.0501 C.3   6365  UNL6365     0.0000
   6413 C          62.0030   48.0577   73.0361 C.3   6366  UNL6366     0.0000
   6414 C          49.0832   18.5941   28.6016 C.3   6367  UNL6367     0.0000
   6415 C          17.5685   63.0286   82.4846 C.3   6368  UNL6368     0.0000
   6416 C          26.8660   15.8329   40.8113 C.3   6369  UNL6369     0.0000
   6417 C          84.2203   50.8188   85.2458 C.3   6370  UNL6370     0.0000
   6418 C          71.3005    6.3843   25.8404 C.3   6371  UNL6371     0.0000
   6419 C          39.7858   60.2674   70.2749 C.3   6372  UNL6372     0.0000
   6420 C          15.8329   70.2749   84.2203 C.3   6373  UNL6373     0.0000
   6421 C          50.8188   25.8404   26.8660 C.3   6374  UNL6374     0.0000
   6422 C           6.3843   85.2458   39.7858 C.3   6375  UNL6375     0.0000
   6423 C          60.2674   40.8113   71.3005 C.3   6376  UNL6376     0.0000
   6424 C          70.2749   26.8660    6.3843 C.3   6377  UNL6377     0.0000
   6425 C          25.8404   84.2203   60.2674 C.3   6378  UNL6378     0.0000
   6426 C          85.2458   71.3005   15.8329 C.3   6379  UNL6379     0.0000
   6427 C          40.8113   39.7858   50.8188 C.3   6380  UNL6380     0.0000
   6428 C          50.8188   84.2203   85.2458 C.3   6381  UNL6381     0.0000
   6429 C          15.8329   26.8660   40.8113 C.3   6382  UNL6382     0.0000
   6430 C          60.2674   39.7858   70.2749 C.3   6383  UNL6383     0.0000
   6431 C           6.3843   71.3005   25.8404 C.3   6384  UNL6384     0.0000
   6432 C          85.2458    6.3843   39.7858 C.3   6385  UNL6385     0.0000
   6433 C          40.8113   60.2674   71.3005 C.3   6386  UNL6386     0.0000
   6434 C          70.2749   15.8329   84.2203 C.3   6387  UNL6387     0.0000
   6435 C          25.8404   50.8188   26.8660 C.3   6388  UNL6388     0.0000
   6436 C          39.7858   40.8113   50.8188 C.3   6389  UNL6389     0.0000
   6437 C          71.3005   85.2458   15.8329 C.3   6390  UNL6390     0.0000
   6438 C          84.2203   25.8404   60.2674 C.3   6391  UNL6391     0.0000
   6439 C          26.8660   70.2749    6.3843 C.3   6392  UNL6392     0.0000
   6440 C          17.5685   28.6016   48.0577 C.3   6393  UNL6393     0.0000
   6441 C          49.0832   82.4846    3.6232 C.3   6394  UNL6394     0.0000
   6442 C          62.0030   38.0501   63.0286 C.3   6395  UNL6395     0.0000
   6443 C           4.6487   73.0361   18.5941 C.3   6396  UNL6396     0.0000
   6444 C          28.6016   63.0286    4.6487 C.3   6397  UNL6397     0.0000
   6445 C          82.4846   18.5941   62.0030 C.3   6398  UNL6398     0.0000
   6446 C          38.0501   48.0577   49.0832 C.3   6399  UNL6399     0.0000
   6447 C          73.0361    3.6232   17.5685 C.3   6400  UNL6400     0.0000
   6448 C          63.0286   17.5685   82.4846 C.3   6401  UNL6401     0.0000
   6449 C          18.5941   49.0832   28.6016 C.3   6402  UNL6402     0.0000
   6450 C          48.0577   62.0030   73.0361 C.3   6403  UNL6403     0.0000
   6451 C           3.6232    4.6487   38.0501 C.3   6404  UNL6404     0.0000
   6452 C          38.0501    4.6487    3.6232 C.3   6405  UNL6405     0.0000
   6453 C          73.0361   62.0030   48.0577 C.3   6406  UNL6406     0.0000
   6454 C          28.6016   49.0832   18.5941 C.3   6407  UNL6407     0.0000
   6455 C          82.4846   17.5685   63.0286 C.3   6408  UNL6408     0.0000
   6456 C           3.6232   82.4846   49.0832 C.3   6409  UNL6409     0.0000
   6457 C          48.0577   28.6016   17.5685 C.3   6410  UNL6410     0.0000
   6458 C          18.5941   73.0361    4.6487 C.3   6411  UNL6411     0.0000
   6459 C          63.0286   38.0501   62.0030 C.3   6412  UNL6412     0.0000
   6460 C          49.0832   48.0577   38.0501 C.3   6413  UNL6413     0.0000
   6461 C          17.5685    3.6232   73.0361 C.3   6414  UNL6414     0.0000
   6462 C           4.6487   63.0286   28.6016 C.3   6415  UNL6415     0.0000
   6463 C          62.0030   18.5941   82.4846 C.3   6416  UNL6416     0.0000
   6464 C          71.3005   60.2674   40.8113 C.3   6417  UNL6417     0.0000
   6465 C          39.7858    6.3843   85.2458 C.3   6418  UNL6418     0.0000
   6466 C          26.8660   50.8188   25.8404 C.3   6419  UNL6419     0.0000
   6467 C          84.2203   15.8329   70.2749 C.3   6420  UNL6420     0.0000
   6468 C          60.2674   25.8404   84.2203 C.3   6421  UNL6421     0.0000
   6469 C           6.3843   70.2749   26.8660 C.3   6422  UNL6422     0.0000
   6470 C          50.8188   40.8113   39.7858 C.3   6423  UNL6423     0.0000
   6471 C          15.8329   85.2458   71.3005 C.3   6424  UNL6424     0.0000
   6472 C          25.8404   71.3005    6.3843 C.3   6425  UNL6425     0.0000
   6473 C          70.2749   39.7858   60.2674 C.3   6426  UNL6426     0.0000
   6474 C          40.8113   26.8660   15.8329 C.3   6427  UNL6427     0.0000
   6475 C          85.2458   84.2203   50.8188 C.3   6428  UNL6428     0.0000
   6476 C          50.8188   39.7858   40.8113 C.3   6429  UNL6429     0.0000
   6477 C          15.8329   71.3005   85.2458 C.3   6430  UNL6430     0.0000
   6478 C          60.2674   84.2203   25.8404 C.3   6431  UNL6431     0.0000
   6479 C           6.3843   26.8660   70.2749 C.3   6432  UNL6432     0.0000
   6480 C          85.2458   50.8188   84.2203 C.3   6433  UNL6433     0.0000
   6481 C          40.8113   15.8329   26.8660 C.3   6434  UNL6434     0.0000
   6482 C          70.2749   60.2674   39.7858 C.3   6435  UNL6435     0.0000
   6483 C          25.8404    6.3843   71.3005 C.3   6436  UNL6436     0.0000
   6484 C          39.7858   85.2458    6.3843 C.3   6437  UNL6437     0.0000
   6485 C          71.3005   40.8113   60.2674 C.3   6438  UNL6438     0.0000
   6486 C          84.2203   70.2749   15.8329 C.3   6439  UNL6439     0.0000
   6487 C          26.8660   25.8404   50.8188 C.3   6440  UNL6440     0.0000
   6488 C          17.5685   73.0361    3.6232 C.3   6441  UNL6441     0.0000
   6489 C          49.0832   38.0501   48.0577 C.3   6442  UNL6442     0.0000
   6490 C          62.0030   82.4846   18.5941 C.3   6443  UNL6443     0.0000
   6491 C           4.6487   28.6016   63.0286 C.3   6444  UNL6444     0.0000
   6492 C          28.6016   18.5941   49.0832 C.3   6445  UNL6445     0.0000
   6493 C          82.4846   63.0286   17.5685 C.3   6446  UNL6446     0.0000
   6494 C          38.0501    3.6232    4.6487 C.3   6447  UNL6447     0.0000
   6495 C          73.0361   48.0577   62.0030 C.3   6448  UNL6448     0.0000
   6496 C          63.0286   62.0030   38.0501 C.3   6449  UNL6449     0.0000
   6497 C          18.5941    4.6487   73.0361 C.3   6450  UNL6450     0.0000
   6498 C          48.0577   17.5685   28.6016 C.3   6451  UNL6451     0.0000
   6499 C           3.6232   49.0832   82.4846 C.3   6452  UNL6452     0.0000
   6500 C          38.0501   49.0832   48.0577 C.3   6453  UNL6453     0.0000
   6501 C          73.0361   17.5685    3.6232 C.3   6454  UNL6454     0.0000
   6502 C          28.6016    4.6487   63.0286 C.3   6455  UNL6455     0.0000
   6503 C          82.4846   62.0030   18.5941 C.3   6456  UNL6456     0.0000
   6504 C           3.6232   38.0501    4.6487 C.3   6457  UNL6457     0.0000
   6505 C          48.0577   73.0361   62.0030 C.3   6458  UNL6458     0.0000
   6506 C          18.5941   28.6016   49.0832 C.3   6459  UNL6459     0.0000
   6507 C          63.0286   82.4846   17.5685 C.3   6460  UNL6460     0.0000
   6508 C          49.0832    3.6232   82.4846 C.3   6461  UNL6461     0.0000
   6509 C          17.5685   48.0577   28.6016 C.3   6462  UNL6462     0.0000
   6510 C           4.6487   18.5941   73.0361 C.3   6463  UNL6463     0.0000
   6511 C          62.0030   63.0286   38.0501 C.3   6464  UNL6464     0.0000
   6512 C          71.3005   15.8329   85.2458 C.3   6465  UNL6465     0.0000
   6513 C          39.7858   50.8188   40.8113 C.3   6466  UNL6466     0.0000
   6514 C          26.8660    6.3843   70.2749 C.3   6467  UNL6467     0.0000
   6515 C          84.2203   60.2674   25.8404 C.3   6468  UNL6468     0.0000
   6516 C          60.2674   70.2749   39.7858 C.3   6469  UNL6469     0.0000
   6517 C           6.3843   25.8404   71.3005 C.3   6470  UNL6470     0.0000
   6518 C          50.8188   85.2458   84.2203 C.3   6471  UNL6471     0.0000
   6519 C          15.8329   40.8113   26.8660 C.3   6472  UNL6472     0.0000
   6520 C          25.8404   26.8660   50.8188 C.3   6473  UNL6473     0.0000
   6521 C          70.2749   84.2203   15.8329 C.3   6474  UNL6474     0.0000
   6522 C          40.8113   71.3005   60.2674 C.3   6475  UNL6475     0.0000
   6523 C          85.2458   39.7858    6.3843 C.3   6476  UNL6476     0.0000
   6524 C          59.5227   27.6649   87.4969 C.3   6477  UNL6477     0.0000
   6525 C          15.0882   38.9868   23.5894 C.3   6478  UNL6478     0.0000
   6526 C          51.5636   72.0994   68.0239 C.3   6479  UNL6479     0.0000
   6527 C          43.0624    7.1291   83.4213 C.3   6480  UNL6480     0.0000
   6528 C          87.4969   59.5227   27.6649 C.3   6481  UNL6481     0.0000
   6529 C          23.5894   15.0882   38.9868 C.3   6482  UNL6482     0.0000
   6530 C          68.0239   51.5636   72.0994 C.3   6483  UNL6483     0.0000
   6531 C          83.4213   43.0624    7.1291 C.3   6484  UNL6484     0.0000
   6532 C          27.6649   87.4969   59.5227 C.3   6485  UNL6485     0.0000
   6533 C          38.9868   23.5894   15.0882 C.3   6486  UNL6486     0.0000
   6534 C          72.0994   68.0239   51.5636 C.3   6487  UNL6487     0.0000
   6535 C          61.2041   29.3463    1.3721 C.3   6488  UNL6488     0.0000
   6536 C           5.4477   81.7399   45.8066 C.3   6489  UNL6489     0.0000
   6537 C          16.7696   37.3054   20.8451 C.3   6490  UNL6490     0.0000
   6538 C          49.8822   73.7808   65.2796 C.3   6491  UNL6491     0.0000
   6539 C          73.7808   65.2796   49.8822 C.3   6492  UNL6492     0.0000
   6540 C          37.3054   20.8451   16.7696 C.3   6493  UNL6493     0.0000
   6541 C          81.7399   45.8066    5.4477 C.3   6494  UNL6494     0.0000
   6542 C          29.3463    1.3721   61.2041 C.3   6495  UNL6495     0.0000
   6543 C          20.8451   16.7696   37.3054 C.3   6496  UNL6496     0.0000
   6544 C          65.2796   49.8822   73.7808 C.3   6497  UNL6497     0.0000
   6545 C           1.3721   61.2041   29.3463 C.3   6498  UNL6498     0.0000
   6546 C          45.8066    5.4477   81.7399 C.3   6499  UNL6499     0.0000
   6547 C          81.7399    5.4477   45.8066 C.3   6500  UNL6500     0.0000
   6548 C          29.3463   61.2041    1.3721 C.3   6501  UNL6501     0.0000
   6549 C          73.7808   49.8822   65.2796 C.3   6502  UNL6502     0.0000
   6550 C          37.3054   16.7696   20.8451 C.3   6503  UNL6503     0.0000
   6551 C          45.8066   81.7399    5.4477 C.3   6504  UNL6504     0.0000
   6552 C           1.3721   29.3463   61.2041 C.3   6505  UNL6505     0.0000
   6553 C          65.2796   73.7808   49.8822 C.3   6506  UNL6506     0.0000
   6554 C          20.8451   37.3054   16.7696 C.3   6507  UNL6507     0.0000
   6555 C           5.4477   45.8066   81.7399 C.3   6508  UNL6508     0.0000
   6556 C          61.2041    1.3721   29.3463 C.3   6509  UNL6509     0.0000
   6557 C          49.8822   65.2796   73.7808 C.3   6510  UNL6510     0.0000
   6558 C          16.7696   20.8451   37.3054 C.3   6511  UNL6511     0.0000
   6559 C          27.6649   59.5227   87.4969 C.3   6512  UNL6512     0.0000
   6560 C          83.4213    7.1291   43.0624 C.3   6513  UNL6513     0.0000
   6561 C          72.0994   51.5636   68.0239 C.3   6514  UNL6514     0.0000
   6562 C          38.9868   15.0882   23.5894 C.3   6515  UNL6515     0.0000
   6563 C          15.0882   23.5894   38.9868 C.3   6516  UNL6516     0.0000
   6564 C          51.5636   68.0239   72.0994 C.3   6517  UNL6517     0.0000
   6565 C           7.1291   43.0624   83.4213 C.3   6518  UNL6518     0.0000
   6566 C          59.5227   87.4969   27.6649 C.3   6519  UNL6519     0.0000
   6567 C          68.0239   72.0994   51.5636 C.3   6520  UNL6520     0.0000
   6568 C          23.5894   38.9868   15.0882 C.3   6521  UNL6521     0.0000
   6569 C          87.4969   27.6649   59.5227 C.3   6522  UNL6522     0.0000
   6570 C          43.0624   83.4213    7.1291 C.3   6523  UNL6523     0.0000
   6571 C           7.1291   38.9868   87.4969 C.3   6524  UNL6524     0.0000
   6572 C          59.5227   72.0994   43.0624 C.3   6525  UNL6525     0.0000
   6573 C          15.0882   83.4213   68.0239 C.3   6526  UNL6526     0.0000
   6574 C          51.5636   27.6649   23.5894 C.3   6527  UNL6527     0.0000
   6575 C          43.0624   51.5636   38.9868 C.3   6528  UNL6528     0.0000
   6576 C          87.4969   15.0882   72.0994 C.3   6529  UNL6529     0.0000
   6577 C          23.5894   59.5227   83.4213 C.3   6530  UNL6530     0.0000
   6578 C          68.0239    7.1291   27.6649 C.3   6531  UNL6531     0.0000
   6579 C          83.4213   87.4969   51.5636 C.3   6532  UNL6532     0.0000
   6580 C          27.6649   43.0624   15.0882 C.3   6533  UNL6533     0.0000
   6581 C          38.9868   68.0239   59.5227 C.3   6534  UNL6534     0.0000
   6582 C          72.0994   23.5894    7.1291 C.3   6535  UNL6535     0.0000
   6583 C          61.2041   73.7808   45.8066 C.3   6536  UNL6536     0.0000
   6584 C           5.4477   37.3054    1.3721 C.3   6537  UNL6537     0.0000
   6585 C          16.7696   81.7399   65.2796 C.3   6538  UNL6538     0.0000
   6586 C          49.8822   29.3463   20.8451 C.3   6539  UNL6539     0.0000
   6587 C          73.7808   20.8451    5.4477 C.3   6540  UNL6540     0.0000
   6588 C          37.3054   65.2796   61.2041 C.3   6541  UNL6541     0.0000
   6589 C          81.7399    1.3721   49.8822 C.3   6542  UNL6542     0.0000
   6590 C          29.3463   45.8066   16.7696 C.3   6543  UNL6543     0.0000
   6591 C          20.8451   61.2041   81.7399 C.3   6544  UNL6544     0.0000
   6592 C          65.2796    5.4477   29.3463 C.3   6545  UNL6545     0.0000
   6593 C           1.3721   16.7696   73.7808 C.3   6546  UNL6546     0.0000
   6594 C          45.8066   49.8822   37.3054 C.3   6547  UNL6547     0.0000
   6595 C          81.7399   49.8822    1.3721 C.3   6548  UNL6548     0.0000
   6596 C          29.3463   16.7696   45.8066 C.3   6549  UNL6549     0.0000
   6597 C          73.7808    5.4477   20.8451 C.3   6550  UNL6550     0.0000
   6598 C          37.3054   61.2041   65.2796 C.3   6551  UNL6551     0.0000
   6599 C          45.8066   37.3054   49.8822 C.3   6552  UNL6552     0.0000
   6600 C           1.3721   73.7808   16.7696 C.3   6553  UNL6553     0.0000
   6601 C          65.2796   29.3463    5.4477 C.3   6554  UNL6554     0.0000
   6602 C          20.8451   81.7399   61.2041 C.3   6555  UNL6555     0.0000
   6603 C           5.4477    1.3721   37.3054 C.3   6556  UNL6556     0.0000
   6604 C          61.2041   45.8066   73.7808 C.3   6557  UNL6557     0.0000
   6605 C          49.8822   20.8451   29.3463 C.3   6558  UNL6558     0.0000
   6606 C          16.7696   65.2796   81.7399 C.3   6559  UNL6559     0.0000
   6607 C          27.6649   15.0882   43.0624 C.3   6560  UNL6560     0.0000
   6608 C          83.4213   51.5636   87.4969 C.3   6561  UNL6561     0.0000
   6609 C          72.0994    7.1291   23.5894 C.3   6562  UNL6562     0.0000
   6610 C          38.9868   59.5227   68.0239 C.3   6563  UNL6563     0.0000
   6611 C          15.0882   68.0239   83.4213 C.3   6564  UNL6564     0.0000
   6612 C          51.5636   23.5894   27.6649 C.3   6565  UNL6565     0.0000
   6613 C           7.1291   87.4969   38.9868 C.3   6566  UNL6566     0.0000
   6614 C          59.5227   43.0624   72.0994 C.3   6567  UNL6567     0.0000
   6615 C          68.0239   27.6649    7.1291 C.3   6568  UNL6568     0.0000
   6616 C          23.5894   83.4213   59.5227 C.3   6569  UNL6569     0.0000
   6617 C          87.4969   72.0994   15.0882 C.3   6570  UNL6570     0.0000
   6618 C          43.0624   38.9868   51.5636 C.3   6571  UNL6571     0.0000
   6619 C          51.5636   83.4213   87.4969 C.3   6572  UNL6572     0.0000
   6620 C          15.0882   27.6649   43.0624 C.3   6573  UNL6573     0.0000
   6621 C          59.5227   38.9868   68.0239 C.3   6574  UNL6574     0.0000
   6622 C           7.1291   72.0994   23.5894 C.3   6575  UNL6575     0.0000
   6623 C          87.4969    7.1291   38.9868 C.3   6576  UNL6576     0.0000
   6624 C          43.0624   59.5227   72.0994 C.3   6577  UNL6577     0.0000
   6625 C          68.0239   15.0882   83.4213 C.3   6578  UNL6578     0.0000
   6626 C          23.5894   51.5636   27.6649 C.3   6579  UNL6579     0.0000
   6627 C          38.9868   43.0624   51.5636 C.3   6580  UNL6580     0.0000
   6628 C          72.0994   87.4969   15.0882 C.3   6581  UNL6581     0.0000
   6629 C          83.4213   23.5894   59.5227 C.3   6582  UNL6582     0.0000
   6630 C          27.6649   68.0239    7.1291 C.3   6583  UNL6583     0.0000
   6631 C          16.7696   29.3463   45.8066 C.3   6584  UNL6584     0.0000
   6632 C          49.8822   81.7399    1.3721 C.3   6585  UNL6585     0.0000
   6633 C          61.2041   37.3054   65.2796 C.3   6586  UNL6586     0.0000
   6634 C           5.4477   73.7808   20.8451 C.3   6587  UNL6587     0.0000
   6635 C          29.3463   65.2796    5.4477 C.3   6588  UNL6588     0.0000
   6636 C          81.7399   20.8451   61.2041 C.3   6589  UNL6589     0.0000
   6637 C          37.3054   45.8066   49.8822 C.3   6590  UNL6590     0.0000
   6638 C          73.7808    1.3721   16.7696 C.3   6591  UNL6591     0.0000
   6639 C          65.2796   16.7696   81.7399 C.3   6592  UNL6592     0.0000
   6640 C          20.8451   49.8822   29.3463 C.3   6593  UNL6593     0.0000
   6641 C          45.8066   61.2041   73.7808 C.3   6594  UNL6594     0.0000
   6642 C           1.3721    5.4477   37.3054 C.3   6595  UNL6595     0.0000
   6643 C          37.3054    5.4477    1.3721 C.3   6596  UNL6596     0.0000
   6644 C          73.7808   61.2041   45.8066 C.3   6597  UNL6597     0.0000
   6645 C          29.3463   49.8822   20.8451 C.3   6598  UNL6598     0.0000
   6646 C          81.7399   16.7696   65.2796 C.3   6599  UNL6599     0.0000
   6647 C           1.3721   81.7399   49.8822 C.3   6600  UNL6600     0.0000
   6648 C          45.8066   29.3463   16.7696 C.3   6601  UNL6601     0.0000
   6649 C          20.8451   73.7808    5.4477 C.3   6602  UNL6602     0.0000
   6650 C          65.2796   37.3054   61.2041 C.3   6603  UNL6603     0.0000
   6651 C          49.8822   45.8066   37.3054 C.3   6604  UNL6604     0.0000
   6652 C          16.7696    1.3721   73.7808 C.3   6605  UNL6605     0.0000
   6653 C           5.4477   65.2796   29.3463 C.3   6606  UNL6606     0.0000
   6654 C          61.2041   20.8451   81.7399 C.3   6607  UNL6607     0.0000
   6655 C          72.0994   59.5227   43.0624 C.3   6608  UNL6608     0.0000
   6656 C          38.9868    7.1291   87.4969 C.3   6609  UNL6609     0.0000
   6657 C          27.6649   51.5636   23.5894 C.3   6610  UNL6610     0.0000
   6658 C          83.4213   15.0882   68.0239 C.3   6611  UNL6611     0.0000
   6659 C          59.5227   23.5894   83.4213 C.3   6612  UNL6612     0.0000
   6660 C           7.1291   68.0239   27.6649 C.3   6613  UNL6613     0.0000
   6661 C          51.5636   43.0624   38.9868 C.3   6614  UNL6614     0.0000
   6662 C          15.0882   87.4969   72.0994 C.3   6615  UNL6615     0.0000
   6663 C          23.5894   72.0994    7.1291 C.3   6616  UNL6616     0.0000
   6664 C          68.0239   38.9868   59.5227 C.3   6617  UNL6617     0.0000
   6665 C          43.0624   27.6649   15.0882 C.3   6618  UNL6618     0.0000
   6666 C          87.4969   83.4213   51.5636 C.3   6619  UNL6619     0.0000
   6667 C          51.5636   38.9868   43.0624 C.3   6620  UNL6620     0.0000
   6668 C          15.0882   72.0994   87.4969 C.3   6621  UNL6621     0.0000
   6669 C          59.5227   83.4213   23.5894 C.3   6622  UNL6622     0.0000
   6670 C           7.1291   27.6649   68.0239 C.3   6623  UNL6623     0.0000
   6671 C          87.4969   51.5636   83.4213 C.3   6624  UNL6624     0.0000
   6672 C          43.0624   15.0882   27.6649 C.3   6625  UNL6625     0.0000
   6673 C          68.0239   59.5227   38.9868 C.3   6626  UNL6626     0.0000
   6674 C          23.5894    7.1291   72.0994 C.3   6627  UNL6627     0.0000
   6675 C          38.9868   87.4969    7.1291 C.3   6628  UNL6628     0.0000
   6676 C          72.0994   43.0624   59.5227 C.3   6629  UNL6629     0.0000
   6677 C          83.4213   68.0239   15.0882 C.3   6630  UNL6630     0.0000
   6678 C          27.6649   23.5894   51.5636 C.3   6631  UNL6631     0.0000
   6679 C          16.7696   73.7808    1.3721 C.3   6632  UNL6632     0.0000
   6680 C          49.8822   37.3054   45.8066 C.3   6633  UNL6633     0.0000
   6681 C          61.2041   81.7399   20.8451 C.3   6634  UNL6634     0.0000
   6682 C           5.4477   29.3463   65.2796 C.3   6635  UNL6635     0.0000
   6683 C          29.3463   20.8451   49.8822 C.3   6636  UNL6636     0.0000
   6684 C          81.7399   65.2796   16.7696 C.3   6637  UNL6637     0.0000
   6685 C          37.3054    1.3721    5.4477 C.3   6638  UNL6638     0.0000
   6686 C          73.7808   45.8066   61.2041 C.3   6639  UNL6639     0.0000
   6687 C          65.2796   61.2041   37.3054 C.3   6640  UNL6640     0.0000
   6688 C          20.8451    5.4477   73.7808 C.3   6641  UNL6641     0.0000
   6689 C          45.8066   16.7696   29.3463 C.3   6642  UNL6642     0.0000
   6690 C           1.3721   49.8822   81.7399 C.3   6643  UNL6643     0.0000
   6691 C          37.3054   49.8822   45.8066 C.3   6644  UNL6644     0.0000
   6692 C          73.7808   16.7696    1.3721 C.3   6645  UNL6645     0.0000
   6693 C          29.3463    5.4477   65.2796 C.3   6646  UNL6646     0.0000
   6694 C          81.7399   61.2041   20.8451 C.3   6647  UNL6647     0.0000
   6695 C           1.3721   37.3054    5.4477 C.3   6648  UNL6648     0.0000
   6696 C          45.8066   73.7808   61.2041 C.3   6649  UNL6649     0.0000
   6697 C          20.8451   29.3463   49.8822 C.3   6650  UNL6650     0.0000
   6698 C          65.2796   81.7399   16.7696 C.3   6651  UNL6651     0.0000
   6699 C          49.8822    1.3721   81.7399 C.3   6652  UNL6652     0.0000
   6700 C          16.7696   45.8066   29.3463 C.3   6653  UNL6653     0.0000
   6701 C           5.4477   20.8451   73.7808 C.3   6654  UNL6654     0.0000
   6702 C          61.2041   65.2796   37.3054 C.3   6655  UNL6655     0.0000
   6703 C          72.0994   15.0882   87.4969 C.3   6656  UNL6656     0.0000
   6704 C          38.9868   51.5636   43.0624 C.3   6657  UNL6657     0.0000
   6705 C          27.6649    7.1291   68.0239 C.3   6658  UNL6658     0.0000
   6706 C          83.4213   59.5227   23.5894 C.3   6659  UNL6659     0.0000
   6707 C          59.5227   68.0239   38.9868 C.3   6660  UNL6660     0.0000
   6708 C           7.1291   23.5894   72.0994 C.3   6661  UNL6661     0.0000
   6709 C          51.5636   87.4969   83.4213 C.3   6662  UNL6662     0.0000
   6710 C          15.0882   43.0624   27.6649 C.3   6663  UNL6663     0.0000
   6711 C          23.5894   27.6649   51.5636 C.3   6664  UNL6664     0.0000
   6712 C          68.0239   83.4213   15.0882 C.3   6665  UNL6665     0.0000
   6713 C          43.0624   72.0994   59.5227 C.3   6666  UNL6666     0.0000
   6714 C          87.4969   38.9868    7.1291 C.3   6667  UNL6667     0.0000
   6715 C          59.4436   26.6767   86.4331 C.3   6668  UNL6668     0.0000
   6716 C          15.0091   39.9750   24.6531 C.3   6669  UNL6669     0.0000
   6717 C          51.6427   71.1112   69.0876 C.3   6670  UNL6670     0.0000
   6718 C          41.9986    7.2082   84.4095 C.3   6671  UNL6671     0.0000
   6719 C          86.4331   59.4436   26.6767 C.3   6672  UNL6672     0.0000
   6720 C          24.6531   15.0091   39.9750 C.3   6673  UNL6673     0.0000
   6721 C          69.0876   51.6427   71.1112 C.3   6674  UNL6674     0.0000
   6722 C          84.4095   41.9986    7.2082 C.3   6675  UNL6675     0.0000
   6723 C          26.6767   86.4331   59.4436 C.3   6676  UNL6676     0.0000
   6724 C          39.9750   24.6531   15.0091 C.3   6677  UNL6677     0.0000
   6725 C          71.1112   69.0876   51.6427 C.3   6678  UNL6678     0.0000
   6726 C          62.1923   29.4254    2.4359 C.3   6679  UNL6679     0.0000
   6727 C           4.4594   81.6608   46.8704 C.3   6680  UNL6680     0.0000
   6728 C          17.7578   37.2263   19.7813 C.3   6681  UNL6681     0.0000
   6729 C          48.8939   73.8599   64.2158 C.3   6682  UNL6682     0.0000
   6730 C          73.8599   64.2158   48.8939 C.3   6683  UNL6683     0.0000
   6731 C          37.2263   19.7813   17.7578 C.3   6684  UNL6684     0.0000
   6732 C          81.6608   46.8704    4.4594 C.3   6685  UNL6685     0.0000
   6733 C          29.4254    2.4359   62.1923 C.3   6686  UNL6686     0.0000
   6734 C          19.7813   17.7578   37.2263 C.3   6687  UNL6687     0.0000
   6735 C          64.2158   48.8939   73.8599 C.3   6688  UNL6688     0.0000
   6736 C           2.4359   62.1923   29.4254 C.3   6689  UNL6689     0.0000
   6737 C          46.8704    4.4594   81.6608 C.3   6690  UNL6690     0.0000
   6738 C          81.6608    4.4594   46.8704 C.3   6691  UNL6691     0.0000
   6739 C          29.4254   62.1923    2.4359 C.3   6692  UNL6692     0.0000
   6740 C          73.8599   48.8939   64.2158 C.3   6693  UNL6693     0.0000
   6741 C          37.2263   17.7578   19.7813 C.3   6694  UNL6694     0.0000
   6742 C          46.8704   81.6608    4.4594 C.3   6695  UNL6695     0.0000
   6743 C           2.4359   29.4254   62.1923 C.3   6696  UNL6696     0.0000
   6744 C          64.2158   73.8599   48.8939 C.3   6697  UNL6697     0.0000
   6745 C          19.7813   37.2263   17.7578 C.3   6698  UNL6698     0.0000
   6746 C           4.4594   46.8704   81.6608 C.3   6699  UNL6699     0.0000
   6747 C          62.1923    2.4359   29.4254 C.3   6700  UNL6700     0.0000
   6748 C          48.8939   64.2158   73.8599 C.3   6701  UNL6701     0.0000
   6749 C          17.7578   19.7813   37.2263 C.3   6702  UNL6702     0.0000
   6750 C          26.6767   59.4436   86.4331 C.3   6703  UNL6703     0.0000
   6751 C          84.4095    7.2082   41.9986 C.3   6704  UNL6704     0.0000
   6752 C          71.1112   51.6427   69.0876 C.3   6705  UNL6705     0.0000
   6753 C          39.9750   15.0091   24.6531 C.3   6706  UNL6706     0.0000
   6754 C          15.0091   24.6531   39.9750 C.3   6707  UNL6707     0.0000
   6755 C          51.6427   69.0876   71.1112 C.3   6708  UNL6708     0.0000
   6756 C           7.2082   41.9986   84.4095 C.3   6709  UNL6709     0.0000
   6757 C          59.4436   86.4331   26.6767 C.3   6710  UNL6710     0.0000
   6758 C          69.0876   71.1112   51.6427 C.3   6711  UNL6711     0.0000
   6759 C          24.6531   39.9750   15.0091 C.3   6712  UNL6712     0.0000
   6760 C          86.4331   26.6767   59.4436 C.3   6713  UNL6713     0.0000
   6761 C          41.9986   84.4095    7.2082 C.3   6714  UNL6714     0.0000
   6762 C           7.2082   39.9750   86.4331 C.3   6715  UNL6715     0.0000
   6763 C          59.4436   71.1112   41.9986 C.3   6716  UNL6716     0.0000
   6764 C          15.0091   84.4095   69.0876 C.3   6717  UNL6717     0.0000
   6765 C          51.6427   26.6767   24.6531 C.3   6718  UNL6718     0.0000
   6766 C          41.9986   51.6427   39.9750 C.3   6719  UNL6719     0.0000
   6767 C          86.4331   15.0091   71.1112 C.3   6720  UNL6720     0.0000
   6768 C          24.6531   59.4436   84.4095 C.3   6721  UNL6721     0.0000
   6769 C          69.0876    7.2082   26.6767 C.3   6722  UNL6722     0.0000
   6770 C          84.4095   86.4331   51.6427 C.3   6723  UNL6723     0.0000
   6771 C          26.6767   41.9986   15.0091 C.3   6724  UNL6724     0.0000
   6772 C          39.9750   69.0876   59.4436 C.3   6725  UNL6725     0.0000
   6773 C          71.1112   24.6531    7.2082 C.3   6726  UNL6726     0.0000
   6774 C          62.1923   73.8599   46.8704 C.3   6727  UNL6727     0.0000
   6775 C           4.4594   37.2263    2.4359 C.3   6728  UNL6728     0.0000
   6776 C          17.7578   81.6608   64.2158 C.3   6729  UNL6729     0.0000
   6777 C          48.8939   29.4254   19.7813 C.3   6730  UNL6730     0.0000
   6778 C          73.8599   19.7813    4.4594 C.3   6731  UNL6731     0.0000
   6779 C          37.2263   64.2158   62.1923 C.3   6732  UNL6732     0.0000
   6780 C          81.6608    2.4359   48.8939 C.3   6733  UNL6733     0.0000
   6781 C          29.4254   46.8704   17.7578 C.3   6734  UNL6734     0.0000
   6782 C          19.7813   62.1923   81.6608 C.3   6735  UNL6735     0.0000
   6783 C          64.2158    4.4594   29.4254 C.3   6736  UNL6736     0.0000
   6784 C           2.4359   17.7578   73.8599 C.3   6737  UNL6737     0.0000
   6785 C          46.8704   48.8939   37.2263 C.3   6738  UNL6738     0.0000
   6786 C          81.6608   48.8939    2.4359 C.3   6739  UNL6739     0.0000
   6787 C          29.4254   17.7578   46.8704 C.3   6740  UNL6740     0.0000
   6788 C          73.8599    4.4594   19.7813 C.3   6741  UNL6741     0.0000
   6789 C          37.2263   62.1923   64.2158 C.3   6742  UNL6742     0.0000
   6790 C          46.8704   37.2263   48.8939 C.3   6743  UNL6743     0.0000
   6791 C           2.4359   73.8599   17.7578 C.3   6744  UNL6744     0.0000
   6792 C          64.2158   29.4254    4.4594 C.3   6745  UNL6745     0.0000
   6793 C          19.7813   81.6608   62.1923 C.3   6746  UNL6746     0.0000
   6794 C           4.4594    2.4359   37.2263 C.3   6747  UNL6747     0.0000
   6795 C          62.1923   46.8704   73.8599 C.3   6748  UNL6748     0.0000
   6796 C          48.8939   19.7813   29.4254 C.3   6749  UNL6749     0.0000
   6797 C          17.7578   64.2158   81.6608 C.3   6750  UNL6750     0.0000
   6798 C          26.6767   15.0091   41.9986 C.3   6751  UNL6751     0.0000
   6799 C          84.4095   51.6427   86.4331 C.3   6752  UNL6752     0.0000
   6800 C          71.1112    7.2082   24.6531 C.3   6753  UNL6753     0.0000
   6801 C          39.9750   59.4436   69.0876 C.3   6754  UNL6754     0.0000
   6802 C          15.0091   69.0876   84.4095 C.3   6755  UNL6755     0.0000
   6803 C          51.6427   24.6531   26.6767 C.3   6756  UNL6756     0.0000
   6804 C           7.2082   86.4331   39.9750 C.3   6757  UNL6757     0.0000
   6805 C          59.4436   41.9986   71.1112 C.3   6758  UNL6758     0.0000
   6806 C          69.0876   26.6767    7.2082 C.3   6759  UNL6759     0.0000
   6807 C          24.6531   84.4095   59.4436 C.3   6760  UNL6760     0.0000
   6808 C          86.4331   71.1112   15.0091 C.3   6761  UNL6761     0.0000
   6809 C          41.9986   39.9750   51.6427 C.3   6762  UNL6762     0.0000
   6810 C          51.6427   84.4095   86.4331 C.3   6763  UNL6763     0.0000
   6811 C          15.0091   26.6767   41.9986 C.3   6764  UNL6764     0.0000
   6812 C          59.4436   39.9750   69.0876 C.3   6765  UNL6765     0.0000
   6813 C           7.2082   71.1112   24.6531 C.3   6766  UNL6766     0.0000
   6814 C          86.4331    7.2082   39.9750 C.3   6767  UNL6767     0.0000
   6815 C          41.9986   59.4436   71.1112 C.3   6768  UNL6768     0.0000
   6816 C          69.0876   15.0091   84.4095 C.3   6769  UNL6769     0.0000
   6817 C          24.6531   51.6427   26.6767 C.3   6770  UNL6770     0.0000
   6818 C          39.9750   41.9986   51.6427 C.3   6771  UNL6771     0.0000
   6819 C          71.1112   86.4331   15.0091 C.3   6772  UNL6772     0.0000
   6820 C          84.4095   24.6531   59.4436 C.3   6773  UNL6773     0.0000
   6821 C          26.6767   69.0876    7.2082 C.3   6774  UNL6774     0.0000
   6822 C          17.7578   29.4254   46.8704 C.3   6775  UNL6775     0.0000
   6823 C          48.8939   81.6608    2.4359 C.3   6776  UNL6776     0.0000
   6824 C          62.1923   37.2263   64.2158 C.3   6777  UNL6777     0.0000
   6825 C           4.4594   73.8599   19.7813 C.3   6778  UNL6778     0.0000
   6826 C          29.4254   64.2158    4.4594 C.3   6779  UNL6779     0.0000
   6827 C          81.6608   19.7813   62.1923 C.3   6780  UNL6780     0.0000
   6828 C          37.2263   46.8704   48.8939 C.3   6781  UNL6781     0.0000
   6829 C          73.8599    2.4359   17.7578 C.3   6782  UNL6782     0.0000
   6830 C          64.2158   17.7578   81.6608 C.3   6783  UNL6783     0.0000
   6831 C          19.7813   48.8939   29.4254 C.3   6784  UNL6784     0.0000
   6832 C          46.8704   62.1923   73.8599 C.3   6785  UNL6785     0.0000
   6833 C           2.4359    4.4594   37.2263 C.3   6786  UNL6786     0.0000
   6834 C          37.2263    4.4594    2.4359 C.3   6787  UNL6787     0.0000
   6835 C          73.8599   62.1923   46.8704 C.3   6788  UNL6788     0.0000
   6836 C          29.4254   48.8939   19.7813 C.3   6789  UNL6789     0.0000
   6837 C          81.6608   17.7578   64.2158 C.3   6790  UNL6790     0.0000
   6838 C           2.4359   81.6608   48.8939 C.3   6791  UNL6791     0.0000
   6839 C          46.8704   29.4254   17.7578 C.3   6792  UNL6792     0.0000
   6840 C          19.7813   73.8599    4.4594 C.3   6793  UNL6793     0.0000
   6841 C          64.2158   37.2263   62.1923 C.3   6794  UNL6794     0.0000
   6842 C          48.8939   46.8704   37.2263 C.3   6795  UNL6795     0.0000
   6843 C          17.7578    2.4359   73.8599 C.3   6796  UNL6796     0.0000
   6844 C           4.4594   64.2158   29.4254 C.3   6797  UNL6797     0.0000
   6845 C          62.1923   19.7813   81.6608 C.3   6798  UNL6798     0.0000
   6846 C          71.1112   59.4436   41.9986 C.3   6799  UNL6799     0.0000
   6847 C          39.9750    7.2082   86.4331 C.3   6800  UNL6800     0.0000
   6848 C          26.6767   51.6427   24.6531 C.3   6801  UNL6801     0.0000
   6849 C          84.4095   15.0091   69.0876 C.3   6802  UNL6802     0.0000
   6850 C          59.4436   24.6531   84.4095 C.3   6803  UNL6803     0.0000
   6851 C           7.2082   69.0876   26.6767 C.3   6804  UNL6804     0.0000
   6852 C          51.6427   41.9986   39.9750 C.3   6805  UNL6805     0.0000
   6853 C          15.0091   86.4331   71.1112 C.3   6806  UNL6806     0.0000
   6854 C          24.6531   71.1112    7.2082 C.3   6807  UNL6807     0.0000
   6855 C          69.0876   39.9750   59.4436 C.3   6808  UNL6808     0.0000
   6856 C          41.9986   26.6767   15.0091 C.3   6809  UNL6809     0.0000
   6857 C          86.4331   84.4095   51.6427 C.3   6810  UNL6810     0.0000
   6858 C          51.6427   39.9750   41.9986 C.3   6811  UNL6811     0.0000
   6859 C          15.0091   71.1112   86.4331 C.3   6812  UNL6812     0.0000
   6860 C          59.4436   84.4095   24.6531 C.3   6813  UNL6813     0.0000
   6861 C           7.2082   26.6767   69.0876 C.3   6814  UNL6814     0.0000
   6862 C          86.4331   51.6427   84.4095 C.3   6815  UNL6815     0.0000
   6863 C          41.9986   15.0091   26.6767 C.3   6816  UNL6816     0.0000
   6864 C          69.0876   59.4436   39.9750 C.3   6817  UNL6817     0.0000
   6865 C          24.6531    7.2082   71.1112 C.3   6818  UNL6818     0.0000
   6866 C          39.9750   86.4331    7.2082 C.3   6819  UNL6819     0.0000
   6867 C          71.1112   41.9986   59.4436 C.3   6820  UNL6820     0.0000
   6868 C          84.4095   69.0876   15.0091 C.3   6821  UNL6821     0.0000
   6869 C          26.6767   24.6531   51.6427 C.3   6822  UNL6822     0.0000
   6870 C          17.7578   73.8599    2.4359 C.3   6823  UNL6823     0.0000
   6871 C          48.8939   37.2263   46.8704 C.3   6824  UNL6824     0.0000
   6872 C          62.1923   81.6608   19.7813 C.3   6825  UNL6825     0.0000
   6873 C           4.4594   29.4254   64.2158 C.3   6826  UNL6826     0.0000
   6874 C          29.4254   19.7813   48.8939 C.3   6827  UNL6827     0.0000
   6875 C          81.6608   64.2158   17.7578 C.3   6828  UNL6828     0.0000
   6876 C          37.2263    2.4359    4.4594 C.3   6829  UNL6829     0.0000
   6877 C          73.8599   46.8704   62.1923 C.3   6830  UNL6830     0.0000
   6878 C          64.2158   62.1923   37.2263 C.3   6831  UNL6831     0.0000
   6879 C          19.7813    4.4594   73.8599 C.3   6832  UNL6832     0.0000
   6880 C          46.8704   17.7578   29.4254 C.3   6833  UNL6833     0.0000
   6881 C           2.4359   48.8939   81.6608 C.3   6834  UNL6834     0.0000
   6882 C          37.2263   48.8939   46.8704 C.3   6835  UNL6835     0.0000
   6883 C          73.8599   17.7578    2.4359 C.3   6836  UNL6836     0.0000
   6884 C          29.4254    4.4594   64.2158 C.3   6837  UNL6837     0.0000
   6885 C          81.6608   62.1923   19.7813 C.3   6838  UNL6838     0.0000
   6886 C           2.4359   37.2263    4.4594 C.3   6839  UNL6839     0.0000
   6887 C          46.8704   73.8599   62.1923 C.3   6840  UNL6840     0.0000
   6888 C          19.7813   29.4254   48.8939 C.3   6841  UNL6841     0.0000
   6889 C          64.2158   81.6608   17.7578 C.3   6842  UNL6842     0.0000
   6890 C          48.8939    2.4359   81.6608 C.3   6843  UNL6843     0.0000
   6891 C          17.7578   46.8704   29.4254 C.3   6844  UNL6844     0.0000
   6892 C           4.4594   19.7813   73.8599 C.3   6845  UNL6845     0.0000
   6893 C          62.1923   64.2158   37.2263 C.3   6846  UNL6846     0.0000
   6894 C          71.1112   15.0091   86.4331 C.3   6847  UNL6847     0.0000
   6895 C          39.9750   51.6427   41.9986 C.3   6848  UNL6848     0.0000
   6896 C          26.6767    7.2082   69.0876 C.3   6849  UNL6849     0.0000
   6897 C          84.4095   59.4436   24.6531 C.3   6850  UNL6850     0.0000
   6898 C          59.4436   69.0876   39.9750 C.3   6851  UNL6851     0.0000
   6899 C           7.2082   24.6531   71.1112 C.3   6852  UNL6852     0.0000
   6900 C          51.6427   86.4331   84.4095 C.3   6853  UNL6853     0.0000
   6901 C          15.0091   41.9986   26.6767 C.3   6854  UNL6854     0.0000
   6902 C          24.6531   26.6767   51.6427 C.3   6855  UNL6855     0.0000
   6903 C          69.0876   84.4095   15.0091 C.3   6856  UNL6856     0.0000
   6904 C          41.9986   71.1112   59.4436 C.3   6857  UNL6857     0.0000
   6905 C          86.4331   39.9750    7.2082 C.3   6858  UNL6858     0.0000
   6906 C          58.3958   25.7125   86.3780 C.3   6859  UNL6859     0.0000
   6907 C          13.9613   40.9393   24.7082 C.3   6860  UNL6860     0.0000
   6908 C          52.6904   70.1470   69.1427 C.3   6861  UNL6861     0.0000
   6909 C          41.9435    8.2559   85.3738 C.3   6862  UNL6862     0.0000
   6910 C          86.3780   58.3958   25.7125 C.3   6863  UNL6863     0.0000
   6911 C          24.7082   13.9613   40.9393 C.3   6864  UNL6864     0.0000
   6912 C          69.1427   52.6904   70.1470 C.3   6865  UNL6865     0.0000
   6913 C          85.3738   41.9435    8.2559 C.3   6866  UNL6866     0.0000
   6914 C          25.7125   86.3780   58.3958 C.3   6867  UNL6867     0.0000
   6915 C          40.9393   24.7082   13.9613 C.3   6868  UNL6868     0.0000
   6916 C          70.1470   69.1427   52.6904 C.3   6869  UNL6869     0.0000
   6917 C          63.1565   30.4732    2.4910 C.3   6870  UNL6870     0.0000
   6918 C           3.4952   80.6131   46.9255 C.3   6871  UNL6871     0.0000
   6919 C          18.7220   36.1786   19.7262 C.3   6872  UNL6872     0.0000
   6920 C          47.9297   74.9077   64.1607 C.3   6873  UNL6873     0.0000
   6921 C          74.9077   64.1607   47.9297 C.3   6874  UNL6874     0.0000
   6922 C          36.1786   19.7262   18.7220 C.3   6875  UNL6875     0.0000
   6923 C          80.6131   46.9255    3.4952 C.3   6876  UNL6876     0.0000
   6924 C          30.4732    2.4910   63.1565 C.3   6877  UNL6877     0.0000
   6925 C          19.7262   18.7220   36.1786 C.3   6878  UNL6878     0.0000
   6926 C          64.1607   47.9297   74.9077 C.3   6879  UNL6879     0.0000
   6927 C           2.4910   63.1565   30.4732 C.3   6880  UNL6880     0.0000
   6928 C          46.9255    3.4952   80.6131 C.3   6881  UNL6881     0.0000
   6929 C          80.6131    3.4952   46.9255 C.3   6882  UNL6882     0.0000
   6930 C          30.4732   63.1565    2.4910 C.3   6883  UNL6883     0.0000
   6931 C          74.9077   47.9297   64.1607 C.3   6884  UNL6884     0.0000
   6932 C          36.1786   18.7220   19.7262 C.3   6885  UNL6885     0.0000
   6933 C          46.9255   80.6131    3.4952 C.3   6886  UNL6886     0.0000
   6934 C           2.4910   30.4732   63.1565 C.3   6887  UNL6887     0.0000
   6935 C          64.1607   74.9077   47.9297 C.3   6888  UNL6888     0.0000
   6936 C          19.7262   36.1786   18.7220 C.3   6889  UNL6889     0.0000
   6937 C           3.4952   46.9255   80.6131 C.3   6890  UNL6890     0.0000
   6938 C          63.1565    2.4910   30.4732 C.3   6891  UNL6891     0.0000
   6939 C          47.9297   64.1607   74.9077 C.3   6892  UNL6892     0.0000
   6940 C          18.7220   19.7262   36.1786 C.3   6893  UNL6893     0.0000
   6941 C          25.7125   58.3958   86.3780 C.3   6894  UNL6894     0.0000
   6942 C          85.3738    8.2559   41.9435 C.3   6895  UNL6895     0.0000
   6943 C          70.1470   52.6904   69.1427 C.3   6896  UNL6896     0.0000
   6944 C          40.9393   13.9613   24.7082 C.3   6897  UNL6897     0.0000
   6945 C          13.9613   24.7082   40.9393 C.3   6898  UNL6898     0.0000
   6946 C          52.6904   69.1427   70.1470 C.3   6899  UNL6899     0.0000
   6947 C           8.2559   41.9435   85.3738 C.3   6900  UNL6900     0.0000
   6948 C          58.3958   86.3780   25.7125 C.3   6901  UNL6901     0.0000
   6949 C          69.1427   70.1470   52.6904 C.3   6902  UNL6902     0.0000
   6950 C          24.7082   40.9393   13.9613 C.3   6903  UNL6903     0.0000
   6951 C          86.3780   25.7125   58.3958 C.3   6904  UNL6904     0.0000
   6952 C          41.9435   85.3738    8.2559 C.3   6905  UNL6905     0.0000
   6953 C           8.2559   40.9393   86.3780 C.3   6906  UNL6906     0.0000
   6954 C          58.3958   70.1470   41.9435 C.3   6907  UNL6907     0.0000
   6955 C          13.9613   85.3738   69.1427 C.3   6908  UNL6908     0.0000
   6956 C          52.6904   25.7125   24.7082 C.3   6909  UNL6909     0.0000
   6957 C          41.9435   52.6904   40.9393 C.3   6910  UNL6910     0.0000
   6958 C          86.3780   13.9613   70.1470 C.3   6911  UNL6911     0.0000
   6959 C          24.7082   58.3958   85.3738 C.3   6912  UNL6912     0.0000
   6960 C          69.1427    8.2559   25.7125 C.3   6913  UNL6913     0.0000
   6961 C          85.3738   86.3780   52.6904 C.3   6914  UNL6914     0.0000
   6962 C          25.7125   41.9435   13.9613 C.3   6915  UNL6915     0.0000
   6963 C          40.9393   69.1427   58.3958 C.3   6916  UNL6916     0.0000
   6964 C          70.1470   24.7082    8.2559 C.3   6917  UNL6917     0.0000
   6965 C          63.1565   74.9077   46.9255 C.3   6918  UNL6918     0.0000
   6966 C           3.4952   36.1786    2.4910 C.3   6919  UNL6919     0.0000
   6967 C          18.7220   80.6131   64.1607 C.3   6920  UNL6920     0.0000
   6968 C          47.9297   30.4732   19.7262 C.3   6921  UNL6921     0.0000
   6969 C          74.9077   19.7262    3.4952 C.3   6922  UNL6922     0.0000
   6970 C          36.1786   64.1607   63.1565 C.3   6923  UNL6923     0.0000
   6971 C          80.6131    2.4910   47.9297 C.3   6924  UNL6924     0.0000
   6972 C          30.4732   46.9255   18.7220 C.3   6925  UNL6925     0.0000
   6973 C          19.7262   63.1565   80.6131 C.3   6926  UNL6926     0.0000
   6974 C          64.1607    3.4952   30.4732 C.3   6927  UNL6927     0.0000
   6975 C           2.4910   18.7220   74.9077 C.3   6928  UNL6928     0.0000
   6976 C          46.9255   47.9297   36.1786 C.3   6929  UNL6929     0.0000
   6977 C          80.6131   47.9297    2.4910 C.3   6930  UNL6930     0.0000
   6978 C          30.4732   18.7220   46.9255 C.3   6931  UNL6931     0.0000
   6979 C          74.9077    3.4952   19.7262 C.3   6932  UNL6932     0.0000
   6980 C          36.1786   63.1565   64.1607 C.3   6933  UNL6933     0.0000
   6981 C          46.9255   36.1786   47.9297 C.3   6934  UNL6934     0.0000
   6982 C           2.4910   74.9077   18.7220 C.3   6935  UNL6935     0.0000
   6983 C          64.1607   30.4732    3.4952 C.3   6936  UNL6936     0.0000
   6984 C          19.7262   80.6131   63.1565 C.3   6937  UNL6937     0.0000
   6985 C           3.4952    2.4910   36.1786 C.3   6938  UNL6938     0.0000
   6986 C          63.1565   46.9255   74.9077 C.3   6939  UNL6939     0.0000
   6987 C          47.9297   19.7262   30.4732 C.3   6940  UNL6940     0.0000
   6988 C          18.7220   64.1607   80.6131 C.3   6941  UNL6941     0.0000
   6989 C          25.7125   13.9613   41.9435 C.3   6942  UNL6942     0.0000
   6990 C          85.3738   52.6904   86.3780 C.3   6943  UNL6943     0.0000
   6991 C          70.1470    8.2559   24.7082 C.3   6944  UNL6944     0.0000
   6992 C          40.9393   58.3958   69.1427 C.3   6945  UNL6945     0.0000
   6993 C          13.9613   69.1427   85.3738 C.3   6946  UNL6946     0.0000
   6994 C          52.6904   24.7082   25.7125 C.3   6947  UNL6947     0.0000
   6995 C           8.2559   86.3780   40.9393 C.3   6948  UNL6948     0.0000
   6996 C          58.3958   41.9435   70.1470 C.3   6949  UNL6949     0.0000
   6997 C          69.1427   25.7125    8.2559 C.3   6950  UNL6950     0.0000
   6998 C          24.7082   85.3738   58.3958 C.3   6951  UNL6951     0.0000
   6999 C          86.3780   70.1470   13.9613 C.3   6952  UNL6952     0.0000
   7000 C          41.9435   40.9393   52.6904 C.3   6953  UNL6953     0.0000
   7001 C          52.6904   85.3738   86.3780 C.3   6954  UNL6954     0.0000
   7002 C          13.9613   25.7125   41.9435 C.3   6955  UNL6955     0.0000
   7003 C          58.3958   40.9393   69.1427 C.3   6956  UNL6956     0.0000
   7004 C           8.2559   70.1470   24.7082 C.3   6957  UNL6957     0.0000
   7005 C          86.3780    8.2559   40.9393 C.3   6958  UNL6958     0.0000
   7006 C          41.9435   58.3958   70.1470 C.3   6959  UNL6959     0.0000
   7007 C          69.1427   13.9613   85.3738 C.3   6960  UNL6960     0.0000
   7008 C          24.7082   52.6904   25.7125 C.3   6961  UNL6961     0.0000
   7009 C          40.9393   41.9435   52.6904 C.3   6962  UNL6962     0.0000
   7010 C          70.1470   86.3780   13.9613 C.3   6963  UNL6963     0.0000
   7011 C          85.3738   24.7082   58.3958 C.3   6964  UNL6964     0.0000
   7012 C          25.7125   69.1427    8.2559 C.3   6965  UNL6965     0.0000
   7013 C          18.7220   30.4732   46.9255 C.3   6966  UNL6966     0.0000
   7014 C          47.9297   80.6131    2.4910 C.3   6967  UNL6967     0.0000
   7015 C          63.1565   36.1786   64.1607 C.3   6968  UNL6968     0.0000
   7016 C           3.4952   74.9077   19.7262 C.3   6969  UNL6969     0.0000
   7017 C          30.4732   64.1607    3.4952 C.3   6970  UNL6970     0.0000
   7018 C          80.6131   19.7262   63.1565 C.3   6971  UNL6971     0.0000
   7019 C          36.1786   46.9255   47.9297 C.3   6972  UNL6972     0.0000
   7020 C          74.9077    2.4910   18.7220 C.3   6973  UNL6973     0.0000
   7021 C          64.1607   18.7220   80.6131 C.3   6974  UNL6974     0.0000
   7022 C          19.7262   47.9297   30.4732 C.3   6975  UNL6975     0.0000
   7023 C          46.9255   63.1565   74.9077 C.3   6976  UNL6976     0.0000
   7024 C           2.4910    3.4952   36.1786 C.3   6977  UNL6977     0.0000
   7025 C          36.1786    3.4952    2.4910 C.3   6978  UNL6978     0.0000
   7026 C          74.9077   63.1565   46.9255 C.3   6979  UNL6979     0.0000
   7027 C          30.4732   47.9297   19.7262 C.3   6980  UNL6980     0.0000
   7028 C          80.6131   18.7220   64.1607 C.3   6981  UNL6981     0.0000
   7029 C           2.4910   80.6131   47.9297 C.3   6982  UNL6982     0.0000
   7030 C          46.9255   30.4732   18.7220 C.3   6983  UNL6983     0.0000
   7031 C          19.7262   74.9077    3.4952 C.3   6984  UNL6984     0.0000
   7032 C          64.1607   36.1786   63.1565 C.3   6985  UNL6985     0.0000
   7033 C          47.9297   46.9255   36.1786 C.3   6986  UNL6986     0.0000
   7034 C          18.7220    2.4910   74.9077 C.3   6987  UNL6987     0.0000
   7035 C           3.4952   64.1607   30.4732 C.3   6988  UNL6988     0.0000
   7036 C          63.1565   19.7262   80.6131 C.3   6989  UNL6989     0.0000
   7037 C          70.1470   58.3958   41.9435 C.3   6990  UNL6990     0.0000
   7038 C          40.9393    8.2559   86.3780 C.3   6991  UNL6991     0.0000
   7039 C          25.7125   52.6904   24.7082 C.3   6992  UNL6992     0.0000
   7040 C          85.3738   13.9613   69.1427 C.3   6993  UNL6993     0.0000
   7041 C          58.3958   24.7082   85.3738 C.3   6994  UNL6994     0.0000
   7042 C           8.2559   69.1427   25.7125 C.3   6995  UNL6995     0.0000
   7043 C          52.6904   41.9435   40.9393 C.3   6996  UNL6996     0.0000
   7044 C          13.9613   86.3780   70.1470 C.3   6997  UNL6997     0.0000
   7045 C          24.7082   70.1470    8.2559 C.3   6998  UNL6998     0.0000
   7046 C          69.1427   40.9393   58.3958 C.3   6999  UNL6999     0.0000
   7047 C          41.9435   25.7125   13.9613 C.3   7000  UNL7000     0.0000
   7048 C          86.3780   85.3738   52.6904 C.3   7001  UNL7001     0.0000
   7049 C          52.6904   40.9393   41.9435 C.3   7002  UNL7002     0.0000
   7050 C          13.9613   70.1470   86.3780 C.3   7003  UNL7003     0.0000
   7051 C          58.3958   85.3738   24.7082 C.3   7004  UNL7004     0.0000
   7052 C           8.2559   25.7125   69.1427 C.3   7005  UNL7005     0.0000
   7053 C          86.3780   52.6904   85.3738 C.3   7006  UNL7006     0.0000
   7054 C          41.9435   13.9613   25.7125 C.3   7007  UNL7007     0.0000
   7055 C          69.1427   58.3958   40.9393 C.3   7008  UNL7008     0.0000
   7056 C          24.7082    8.2559   70.1470 C.3   7009  UNL7009     0.0000
   7057 C          40.9393   86.3780    8.2559 C.3   7010  UNL7010     0.0000
   7058 C          70.1470   41.9435   58.3958 C.3   7011  UNL7011     0.0000
   7059 C          85.3738   69.1427   13.9613 C.3   7012  UNL7012     0.0000
   7060 C          25.7125   24.7082   52.6904 C.3   7013  UNL7013     0.0000
   7061 C          18.7220   74.9077    2.4910 C.3   7014  UNL7014     0.0000
   7062 C          47.9297   36.1786   46.9255 C.3   7015  UNL7015     0.0000
   7063 C          63.1565   80.6131   19.7262 C.3   7016  UNL7016     0.0000
   7064 C           3.4952   30.4732   64.1607 C.3   7017  UNL7017     0.0000
   7065 C          30.4732   19.7262   47.9297 C.3   7018  UNL7018     0.0000
   7066 C          80.6131   64.1607   18.7220 C.3   7019  UNL7019     0.0000
   7067 C          36.1786    2.4910    3.4952 C.3   7020  UNL7020     0.0000
   7068 C          74.9077   46.9255   63.1565 C.3   7021  UNL7021     0.0000
   7069 C          64.1607   63.1565   36.1786 C.3   7022  UNL7022     0.0000
   7070 C          19.7262    3.4952   74.9077 C.3   7023  UNL7023     0.0000
   7071 C          46.9255   18.7220   30.4732 C.3   7024  UNL7024     0.0000
   7072 C           2.4910   47.9297   80.6131 C.3   7025  UNL7025     0.0000
   7073 C          36.1786   47.9297   46.9255 C.3   7026  UNL7026     0.0000
   7074 C          74.9077   18.7220    2.4910 C.3   7027  UNL7027     0.0000
   7075 C          30.4732    3.4952   64.1607 C.3   7028  UNL7028     0.0000
   7076 C          80.6131   63.1565   19.7262 C.3   7029  UNL7029     0.0000
   7077 C           2.4910   36.1786    3.4952 C.3   7030  UNL7030     0.0000
   7078 C          46.9255   74.9077   63.1565 C.3   7031  UNL7031     0.0000
   7079 C          19.7262   30.4732   47.9297 C.3   7032  UNL7032     0.0000
   7080 C          64.1607   80.6131   18.7220 C.3   7033  UNL7033     0.0000
   7081 C          47.9297    2.4910   80.6131 C.3   7034  UNL7034     0.0000
   7082 C          18.7220   46.9255   30.4732 C.3   7035  UNL7035     0.0000
   7083 C           3.4952   19.7262   74.9077 C.3   7036  UNL7036     0.0000
   7084 C          63.1565   64.1607   36.1786 C.3   7037  UNL7037     0.0000
   7085 C          70.1470   13.9613   86.3780 C.3   7038  UNL7038     0.0000
   7086 C          40.9393   52.6904   41.9435 C.3   7039  UNL7039     0.0000
   7087 C          25.7125    8.2559   69.1427 C.3   7040  UNL7040     0.0000
   7088 C          85.3738   58.3958   24.7082 C.3   7041  UNL7041     0.0000
   7089 C          58.3958   69.1427   40.9393 C.3   7042  UNL7042     0.0000
   7090 C           8.2559   24.7082   70.1470 C.3   7043  UNL7043     0.0000
   7091 C          52.6904   86.3780   85.3738 C.3   7044  UNL7044     0.0000
   7092 C          13.9613   41.9435   25.7125 C.3   7045  UNL7045     0.0000
   7093 C          24.7082   25.7125   52.6904 C.3   7046  UNL7046     0.0000
   7094 C          69.1427   85.3738   13.9613 C.3   7047  UNL7047     0.0000
   7095 C          41.9435   70.1470   58.3958 C.3   7048  UNL7048     0.0000
   7096 C          86.3780   40.9393    8.2559 C.3   7049  UNL7049     0.0000
   7097 C          58.4722   27.3859   79.4018 C.3   7050  UNL7050     0.0000
   7098 C          14.0377   39.2659   31.6845 C.3   7051  UNL7051     0.0000
   7099 C          52.6140   71.8204   76.1190 C.3   7052  UNL7052     0.0000
   7100 C          34.9673    8.1795   83.7004 C.3   7053  UNL7053     0.0000
   7101 C          79.4018   58.4722   27.3859 C.3   7054  UNL7054     0.0000
   7102 C          31.6845   14.0377   39.2659 C.3   7055  UNL7055     0.0000
   7103 C          76.1190   52.6140   71.8204 C.3   7056  UNL7056     0.0000
   7104 C          83.7004   34.9673    8.1795 C.3   7057  UNL7057     0.0000
   7105 C          27.3859   79.4018   58.4722 C.3   7058  UNL7058     0.0000
   7106 C          39.2659   31.6845   14.0377 C.3   7059  UNL7059     0.0000
   7107 C          71.8204   76.1190   52.6140 C.3   7060  UNL7060     0.0000
   7108 C          61.4831   30.3967    9.4672 C.3   7061  UNL7061     0.0000
   7109 C           5.1686   80.6895   53.9017 C.3   7062  UNL7062     0.0000
   7110 C          17.0486   36.2550   12.7500 C.3   7063  UNL7063     0.0000
   7111 C          49.6031   74.8312   57.1845 C.3   7064  UNL7064     0.0000
   7112 C          74.8312   57.1845   49.6031 C.3   7065  UNL7065     0.0000
   7113 C          36.2550   12.7500   17.0486 C.3   7066  UNL7066     0.0000
   7114 C          80.6895   53.9017    5.1686 C.3   7067  UNL7067     0.0000
   7115 C          30.3967    9.4672   61.4831 C.3   7068  UNL7068     0.0000
   7116 C          12.7500   17.0486   36.2550 C.3   7069  UNL7069     0.0000
   7117 C          57.1845   49.6031   74.8312 C.3   7070  UNL7070     0.0000
   7118 C           9.4672   61.4831   30.3967 C.3   7071  UNL7071     0.0000
   7119 C          53.9017    5.1686   80.6895 C.3   7072  UNL7072     0.0000
   7120 C          80.6895    5.1686   53.9017 C.3   7073  UNL7073     0.0000
   7121 C          30.3967   61.4831    9.4672 C.3   7074  UNL7074     0.0000
   7122 C          74.8312   49.6031   57.1845 C.3   7075  UNL7075     0.0000
   7123 C          36.2550   17.0486   12.7500 C.3   7076  UNL7076     0.0000
   7124 C          53.9017   80.6895    5.1686 C.3   7077  UNL7077     0.0000
   7125 C           9.4672   30.3967   61.4831 C.3   7078  UNL7078     0.0000
   7126 C          57.1845   74.8312   49.6031 C.3   7079  UNL7079     0.0000
   7127 C          12.7500   36.2550   17.0486 C.3   7080  UNL7080     0.0000
   7128 C           5.1686   53.9017   80.6895 C.3   7081  UNL7081     0.0000
   7129 C          61.4831    9.4672   30.3967 C.3   7082  UNL7082     0.0000
   7130 C          49.6031   57.1845   74.8312 C.3   7083  UNL7083     0.0000
   7131 C          17.0486   12.7500   36.2550 C.3   7084  UNL7084     0.0000
   7132 C          27.3859   58.4722   79.4018 C.3   7085  UNL7085     0.0000
   7133 C          83.7004    8.1795   34.9673 C.3   7086  UNL7086     0.0000
   7134 C          71.8204   52.6140   76.1190 C.3   7087  UNL7087     0.0000
   7135 C          39.2659   14.0377   31.6845 C.3   7088  UNL7088     0.0000
   7136 C          14.0377   31.6845   39.2659 C.3   7089  UNL7089     0.0000
   7137 C          52.6140   76.1190   71.8204 C.3   7090  UNL7090     0.0000
   7138 C           8.1795   34.9673   83.7004 C.3   7091  UNL7091     0.0000
   7139 C          58.4722   79.4018   27.3859 C.3   7092  UNL7092     0.0000
   7140 C          76.1190   71.8204   52.6140 C.3   7093  UNL7093     0.0000
   7141 C          31.6845   39.2659   14.0377 C.3   7094  UNL7094     0.0000
   7142 C          79.4018   27.3859   58.4722 C.3   7095  UNL7095     0.0000
   7143 C          34.9673   83.7004    8.1795 C.3   7096  UNL7096     0.0000
   7144 C           8.1795   39.2659   79.4018 C.3   7097  UNL7097     0.0000
   7145 C          58.4722   71.8204   34.9673 C.3   7098  UNL7098     0.0000
   7146 C          14.0377   83.7004   76.1190 C.3   7099  UNL7099     0.0000
   7147 C          52.6140   27.3859   31.6845 C.3   7100  UNL7100     0.0000
   7148 C          34.9673   52.6140   39.2659 C.3   7101  UNL7101     0.0000
   7149 C          79.4018   14.0377   71.8204 C.3   7102  UNL7102     0.0000
   7150 C          31.6845   58.4722   83.7004 C.3   7103  UNL7103     0.0000
   7151 C          76.1190    8.1795   27.3859 C.3   7104  UNL7104     0.0000
   7152 C          83.7004   79.4018   52.6140 C.3   7105  UNL7105     0.0000
   7153 C          27.3859   34.9673   14.0377 C.3   7106  UNL7106     0.0000
   7154 C          39.2659   76.1190   58.4722 C.3   7107  UNL7107     0.0000
   7155 C          71.8204   31.6845    8.1795 C.3   7108  UNL7108     0.0000
   7156 C          61.4831   74.8312   53.9017 C.3   7109  UNL7109     0.0000
   7157 C           5.1686   36.2550    9.4672 C.3   7110  UNL7110     0.0000
   7158 C          17.0486   80.6895   57.1845 C.3   7111  UNL7111     0.0000
   7159 C          49.6031   30.3967   12.7500 C.3   7112  UNL7112     0.0000
   7160 C          74.8312   12.7500    5.1686 C.3   7113  UNL7113     0.0000
   7161 C          36.2550   57.1845   61.4831 C.3   7114  UNL7114     0.0000
   7162 C          80.6895    9.4672   49.6031 C.3   7115  UNL7115     0.0000
   7163 C          30.3967   53.9017   17.0486 C.3   7116  UNL7116     0.0000
   7164 C          12.7500   61.4831   80.6895 C.3   7117  UNL7117     0.0000
   7165 C          57.1845    5.1686   30.3967 C.3   7118  UNL7118     0.0000
   7166 C           9.4672   17.0486   74.8312 C.3   7119  UNL7119     0.0000
   7167 C          53.9017   49.6031   36.2550 C.3   7120  UNL7120     0.0000
   7168 C          80.6895   49.6031    9.4672 C.3   7121  UNL7121     0.0000
   7169 C          30.3967   17.0486   53.9017 C.3   7122  UNL7122     0.0000
   7170 C          74.8312    5.1686   12.7500 C.3   7123  UNL7123     0.0000
   7171 C          36.2550   61.4831   57.1845 C.3   7124  UNL7124     0.0000
   7172 C          53.9017   36.2550   49.6031 C.3   7125  UNL7125     0.0000
   7173 C           9.4672   74.8312   17.0486 C.3   7126  UNL7126     0.0000
   7174 C          57.1845   30.3967    5.1686 C.3   7127  UNL7127     0.0000
   7175 C          12.7500   80.6895   61.4831 C.3   7128  UNL7128     0.0000
   7176 C           5.1686    9.4672   36.2550 C.3   7129  UNL7129     0.0000
   7177 C          61.4831   53.9017   74.8312 C.3   7130  UNL7130     0.0000
   7178 C          49.6031   12.7500   30.3967 C.3   7131  UNL7131     0.0000
   7179 C          17.0486   57.1845   80.6895 C.3   7132  UNL7132     0.0000
   7180 C          27.3859   14.0377   34.9673 C.3   7133  UNL7133     0.0000
   7181 C          83.7004   52.6140   79.4018 C.3   7134  UNL7134     0.0000
   7182 C          71.8204    8.1795   31.6845 C.3   7135  UNL7135     0.0000
   7183 C          39.2659   58.4722   76.1190 C.3   7136  UNL7136     0.0000
   7184 C          14.0377   76.1190   83.7004 C.3   7137  UNL7137     0.0000
   7185 C          52.6140   31.6845   27.3859 C.3   7138  UNL7138     0.0000
   7186 C           8.1795   79.4018   39.2659 C.3   7139  UNL7139     0.0000
   7187 C          58.4722   34.9673   71.8204 C.3   7140  UNL7140     0.0000
   7188 C          76.1190   27.3859    8.1795 C.3   7141  UNL7141     0.0000
   7189 C          31.6845   83.7004   58.4722 C.3   7142  UNL7142     0.0000
   7190 C          79.4018   71.8204   14.0377 C.3   7143  UNL7143     0.0000
   7191 C          34.9673   39.2659   52.6140 C.3   7144  UNL7144     0.0000
   7192 C          52.6140   83.7004   79.4018 C.3   7145  UNL7145     0.0000
   7193 C          14.0377   27.3859   34.9673 C.3   7146  UNL7146     0.0000
   7194 C          58.4722   39.2659   76.1190 C.3   7147  UNL7147     0.0000
   7195 C           8.1795   71.8204   31.6845 C.3   7148  UNL7148     0.0000
   7196 C          79.4018    8.1795   39.2659 C.3   7149  UNL7149     0.0000
   7197 C          34.9673   58.4722   71.8204 C.3   7150  UNL7150     0.0000
   7198 C          76.1190   14.0377   83.7004 C.3   7151  UNL7151     0.0000
   7199 C          31.6845   52.6140   27.3859 C.3   7152  UNL7152     0.0000
   7200 C          39.2659   34.9673   52.6140 C.3   7153  UNL7153     0.0000
   7201 C          71.8204   79.4018   14.0377 C.3   7154  UNL7154     0.0000
   7202 C          83.7004   31.6845   58.4722 C.3   7155  UNL7155     0.0000
   7203 C          27.3859   76.1190    8.1795 C.3   7156  UNL7156     0.0000
   7204 C          17.0486   30.3967   53.9017 C.3   7157  UNL7157     0.0000
   7205 C          49.6031   80.6895    9.4672 C.3   7158  UNL7158     0.0000
   7206 C          61.4831   36.2550   57.1845 C.3   7159  UNL7159     0.0000
   7207 C           5.1686   74.8312   12.7500 C.3   7160  UNL7160     0.0000
   7208 C          30.3967   57.1845    5.1686 C.3   7161  UNL7161     0.0000
   7209 C          80.6895   12.7500   61.4831 C.3   7162  UNL7162     0.0000
   7210 C          36.2550   53.9017   49.6031 C.3   7163  UNL7163     0.0000
   7211 C          74.8312    9.4672   17.0486 C.3   7164  UNL7164     0.0000
   7212 C          57.1845   17.0486   80.6895 C.3   7165  UNL7165     0.0000
   7213 C          12.7500   49.6031   30.3967 C.3   7166  UNL7166     0.0000
   7214 C          53.9017   61.4831   74.8312 C.3   7167  UNL7167     0.0000
   7215 C           9.4672    5.1686   36.2550 C.3   7168  UNL7168     0.0000
   7216 C          36.2550    5.1686    9.4672 C.3   7169  UNL7169     0.0000
   7217 C          74.8312   61.4831   53.9017 C.3   7170  UNL7170     0.0000
   7218 C          30.3967   49.6031   12.7500 C.3   7171  UNL7171     0.0000
   7219 C          80.6895   17.0486   57.1845 C.3   7172  UNL7172     0.0000
   7220 C           9.4672   80.6895   49.6031 C.3   7173  UNL7173     0.0000
   7221 C          53.9017   30.3967   17.0486 C.3   7174  UNL7174     0.0000
   7222 C          12.7500   74.8312    5.1686 C.3   7175  UNL7175     0.0000
   7223 C          57.1845   36.2550   61.4831 C.3   7176  UNL7176     0.0000
   7224 C          49.6031   53.9017   36.2550 C.3   7177  UNL7177     0.0000
   7225 C          17.0486    9.4672   74.8312 C.3   7178  UNL7178     0.0000
   7226 C           5.1686   57.1845   30.3967 C.3   7179  UNL7179     0.0000
   7227 C          61.4831   12.7500   80.6895 C.3   7180  UNL7180     0.0000
   7228 C          71.8204   58.4722   34.9673 C.3   7181  UNL7181     0.0000
   7229 C          39.2659    8.1795   79.4018 C.3   7182  UNL7182     0.0000
   7230 C          27.3859   52.6140   31.6845 C.3   7183  UNL7183     0.0000
   7231 C          83.7004   14.0377   76.1190 C.3   7184  UNL7184     0.0000
   7232 C          58.4722   31.6845   83.7004 C.3   7185  UNL7185     0.0000
   7233 C           8.1795   76.1190   27.3859 C.3   7186  UNL7186     0.0000
   7234 C          52.6140   34.9673   39.2659 C.3   7187  UNL7187     0.0000
   7235 C          14.0377   79.4018   71.8204 C.3   7188  UNL7188     0.0000
   7236 C          31.6845   71.8204    8.1795 C.3   7189  UNL7189     0.0000
   7237 C          76.1190   39.2659   58.4722 C.3   7190  UNL7190     0.0000
   7238 C          34.9673   27.3859   14.0377 C.3   7191  UNL7191     0.0000
   7239 C          79.4018   83.7004   52.6140 C.3   7192  UNL7192     0.0000
   7240 C          52.6140   39.2659   34.9673 C.3   7193  UNL7193     0.0000
   7241 C          14.0377   71.8204   79.4018 C.3   7194  UNL7194     0.0000
   7242 C          58.4722   83.7004   31.6845 C.3   7195  UNL7195     0.0000
   7243 C           8.1795   27.3859   76.1190 C.3   7196  UNL7196     0.0000
   7244 C          79.4018   52.6140   83.7004 C.3   7197  UNL7197     0.0000
   7245 C          34.9673   14.0377   27.3859 C.3   7198  UNL7198     0.0000
   7246 C          76.1190   58.4722   39.2659 C.3   7199  UNL7199     0.0000
   7247 C          31.6845    8.1795   71.8204 C.3   7200  UNL7200     0.0000
   7248 C          39.2659   79.4018    8.1795 C.3   7201  UNL7201     0.0000
   7249 C          71.8204   34.9673   58.4722 C.3   7202  UNL7202     0.0000
   7250 C          83.7004   76.1190   14.0377 C.3   7203  UNL7203     0.0000
   7251 C          27.3859   31.6845   52.6140 C.3   7204  UNL7204     0.0000
   7252 C          17.0486   74.8312    9.4672 C.3   7205  UNL7205     0.0000
   7253 C          49.6031   36.2550   53.9017 C.3   7206  UNL7206     0.0000
   7254 C          61.4831   80.6895   12.7500 C.3   7207  UNL7207     0.0000
   7255 C           5.1686   30.3967   57.1845 C.3   7208  UNL7208     0.0000
   7256 C          30.3967   12.7500   49.6031 C.3   7209  UNL7209     0.0000
   7257 C          80.6895   57.1845   17.0486 C.3   7210  UNL7210     0.0000
   7258 C          36.2550    9.4672    5.1686 C.3   7211  UNL7211     0.0000
   7259 C          74.8312   53.9017   61.4831 C.3   7212  UNL7212     0.0000
   7260 C          57.1845   61.4831   36.2550 C.3   7213  UNL7213     0.0000
   7261 C          12.7500    5.1686   74.8312 C.3   7214  UNL7214     0.0000
   7262 C          53.9017   17.0486   30.3967 C.3   7215  UNL7215     0.0000
   7263 C           9.4672   49.6031   80.6895 C.3   7216  UNL7216     0.0000
   7264 C          36.2550   49.6031   53.9017 C.3   7217  UNL7217     0.0000
   7265 C          74.8312   17.0486    9.4672 C.3   7218  UNL7218     0.0000
   7266 C          30.3967    5.1686   57.1845 C.3   7219  UNL7219     0.0000
   7267 C          80.6895   61.4831   12.7500 C.3   7220  UNL7220     0.0000
   7268 C           9.4672   36.2550    5.1686 C.3   7221  UNL7221     0.0000
   7269 C          53.9017   74.8312   61.4831 C.3   7222  UNL7222     0.0000
   7270 C          12.7500   30.3967   49.6031 C.3   7223  UNL7223     0.0000
   7271 C          57.1845   80.6895   17.0486 C.3   7224  UNL7224     0.0000
   7272 C          49.6031    9.4672   80.6895 C.3   7225  UNL7225     0.0000
   7273 C          17.0486   53.9017   30.3967 C.3   7226  UNL7226     0.0000
   7274 C           5.1686   12.7500   74.8312 C.3   7227  UNL7227     0.0000
   7275 C          61.4831   57.1845   36.2550 C.3   7228  UNL7228     0.0000
   7276 C          71.8204   14.0377   79.4018 C.3   7229  UNL7229     0.0000
   7277 C          39.2659   52.6140   34.9673 C.3   7230  UNL7230     0.0000
   7278 C          27.3859    8.1795   76.1190 C.3   7231  UNL7231     0.0000
   7279 C          83.7004   58.4722   31.6845 C.3   7232  UNL7232     0.0000
   7280 C          58.4722   76.1190   39.2659 C.3   7233  UNL7233     0.0000
   7281 C           8.1795   31.6845   71.8204 C.3   7234  UNL7234     0.0000
   7282 C          52.6140   79.4018   83.7004 C.3   7235  UNL7235     0.0000
   7283 C          14.0377   34.9673   27.3859 C.3   7236  UNL7236     0.0000
   7284 C          31.6845   27.3859   52.6140 C.3   7237  UNL7237     0.0000
   7285 C          76.1190   83.7004   14.0377 C.3   7238  UNL7238     0.0000
   7286 C          34.9673   71.8204   58.4722 C.3   7239  UNL7239     0.0000
   7287 C          79.4018   39.2659    8.1795 C.3   7240  UNL7240     0.0000
   7288 C          58.0572   24.9651   78.9548 C.3   7241  UNL7241     0.0000
   7289 C          13.6227   41.6867   32.1315 C.3   7242  UNL7242     0.0000
   7290 C          53.0290   69.3996   76.5660 C.3   7243  UNL7243     0.0000
   7291 C          34.5203    8.5945   86.1212 C.3   7244  UNL7244     0.0000
   7292 C          78.9548   58.0572   24.9651 C.3   7245  UNL7245     0.0000
   7293 C          32.1315   13.6227   41.6867 C.3   7246  UNL7246     0.0000
   7294 C          76.5660   53.0290   69.3996 C.3   7247  UNL7247     0.0000
   7295 C          86.1212   34.5203    8.5945 C.3   7248  UNL7248     0.0000
   7296 C          24.9651   78.9548   58.0572 C.3   7249  UNL7249     0.0000
   7297 C          41.6867   32.1315   13.6227 C.3   7250  UNL7250     0.0000
   7298 C          69.3996   76.5660   53.0290 C.3   7251  UNL7251     0.0000
   7299 C          63.9039   30.8118    9.9142 C.3   7252  UNL7252     0.0000
   7300 C           2.7478   80.2745   54.3487 C.3   7253  UNL7253     0.0000
   7301 C          19.4694   35.8400   12.3030 C.3   7254  UNL7254     0.0000
   7302 C          47.1823   75.2463   56.7375 C.3   7255  UNL7255     0.0000
   7303 C          75.2463   56.7375   47.1823 C.3   7256  UNL7256     0.0000
   7304 C          35.8400   12.3030   19.4694 C.3   7257  UNL7257     0.0000
   7305 C          80.2745   54.3487    2.7478 C.3   7258  UNL7258     0.0000
   7306 C          30.8118    9.9142   63.9039 C.3   7259  UNL7259     0.0000
   7307 C          12.3030   19.4694   35.8400 C.3   7260  UNL7260     0.0000
   7308 C          56.7375   47.1823   75.2463 C.3   7261  UNL7261     0.0000
   7309 C           9.9142   63.9039   30.8118 C.3   7262  UNL7262     0.0000
   7310 C          54.3487    2.7478   80.2745 C.3   7263  UNL7263     0.0000
   7311 C          80.2745    2.7478   54.3487 C.3   7264  UNL7264     0.0000
   7312 C          30.8118   63.9039    9.9142 C.3   7265  UNL7265     0.0000
   7313 C          75.2463   47.1823   56.7375 C.3   7266  UNL7266     0.0000
   7314 C          35.8400   19.4694   12.3030 C.3   7267  UNL7267     0.0000
   7315 C          54.3487   80.2745    2.7478 C.3   7268  UNL7268     0.0000
   7316 C           9.9142   30.8118   63.9039 C.3   7269  UNL7269     0.0000
   7317 C          56.7375   75.2463   47.1823 C.3   7270  UNL7270     0.0000
   7318 C          12.3030   35.8400   19.4694 C.3   7271  UNL7271     0.0000
   7319 C           2.7478   54.3487   80.2745 C.3   7272  UNL7272     0.0000
   7320 C          63.9039    9.9142   30.8118 C.3   7273  UNL7273     0.0000
   7321 C          47.1823   56.7375   75.2463 C.3   7274  UNL7274     0.0000
   7322 C          19.4694   12.3030   35.8400 C.3   7275  UNL7275     0.0000
   7323 C          24.9651   58.0572   78.9548 C.3   7276  UNL7276     0.0000
   7324 C          86.1212    8.5945   34.5203 C.3   7277  UNL7277     0.0000
   7325 C          69.3996   53.0290   76.5660 C.3   7278  UNL7278     0.0000
   7326 C          41.6867   13.6227   32.1315 C.3   7279  UNL7279     0.0000
   7327 C          13.6227   32.1315   41.6867 C.3   7280  UNL7280     0.0000
   7328 C          53.0290   76.5660   69.3996 C.3   7281  UNL7281     0.0000
   7329 C           8.5945   34.5203   86.1212 C.3   7282  UNL7282     0.0000
   7330 C          58.0572   78.9548   24.9651 C.3   7283  UNL7283     0.0000
   7331 C          76.5660   69.3996   53.0290 C.3   7284  UNL7284     0.0000
   7332 C          32.1315   41.6867   13.6227 C.3   7285  UNL7285     0.0000
   7333 C          78.9548   24.9651   58.0572 C.3   7286  UNL7286     0.0000
   7334 C          34.5203   86.1212    8.5945 C.3   7287  UNL7287     0.0000
   7335 C           8.5945   41.6867   78.9548 C.3   7288  UNL7288     0.0000
   7336 C          58.0572   69.3996   34.5203 C.3   7289  UNL7289     0.0000
   7337 C          13.6227   86.1212   76.5660 C.3   7290  UNL7290     0.0000
   7338 C          53.0290   24.9651   32.1315 C.3   7291  UNL7291     0.0000
   7339 C          34.5203   53.0290   41.6867 C.3   7292  UNL7292     0.0000
   7340 C          78.9548   13.6227   69.3996 C.3   7293  UNL7293     0.0000
   7341 C          32.1315   58.0572   86.1212 C.3   7294  UNL7294     0.0000
   7342 C          76.5660    8.5945   24.9651 C.3   7295  UNL7295     0.0000
   7343 C          86.1212   78.9548   53.0290 C.3   7296  UNL7296     0.0000
   7344 C          24.9651   34.5203   13.6227 C.3   7297  UNL7297     0.0000
   7345 C          41.6867   76.5660   58.0572 C.3   7298  UNL7298     0.0000
   7346 C          69.3996   32.1315    8.5945 C.3   7299  UNL7299     0.0000
   7347 C          63.9039   75.2463   54.3487 C.3   7300  UNL7300     0.0000
   7348 C           2.7478   35.8400    9.9142 C.3   7301  UNL7301     0.0000
   7349 C          19.4694   80.2745   56.7375 C.3   7302  UNL7302     0.0000
   7350 C          47.1823   30.8118   12.3030 C.3   7303  UNL7303     0.0000
   7351 C          75.2463   12.3030    2.7478 C.3   7304  UNL7304     0.0000
   7352 C          35.8400   56.7375   63.9039 C.3   7305  UNL7305     0.0000
   7353 C          80.2745    9.9142   47.1823 C.3   7306  UNL7306     0.0000
   7354 C          30.8118   54.3487   19.4694 C.3   7307  UNL7307     0.0000
   7355 C          12.3030   63.9039   80.2745 C.3   7308  UNL7308     0.0000
   7356 C          56.7375    2.7478   30.8118 C.3   7309  UNL7309     0.0000
   7357 C           9.9142   19.4694   75.2463 C.3   7310  UNL7310     0.0000
   7358 C          54.3487   47.1823   35.8400 C.3   7311  UNL7311     0.0000
   7359 C          80.2745   47.1823    9.9142 C.3   7312  UNL7312     0.0000
   7360 C          30.8118   19.4694   54.3487 C.3   7313  UNL7313     0.0000
   7361 C          75.2463    2.7478   12.3030 C.3   7314  UNL7314     0.0000
   7362 C          35.8400   63.9039   56.7375 C.3   7315  UNL7315     0.0000
   7363 C          54.3487   35.8400   47.1823 C.3   7316  UNL7316     0.0000
   7364 C           9.9142   75.2463   19.4694 C.3   7317  UNL7317     0.0000
   7365 C          56.7375   30.8118    2.7478 C.3   7318  UNL7318     0.0000
   7366 C          12.3030   80.2745   63.9039 C.3   7319  UNL7319     0.0000
   7367 C           2.7478    9.9142   35.8400 C.3   7320  UNL7320     0.0000
   7368 C          63.9039   54.3487   75.2463 C.3   7321  UNL7321     0.0000
   7369 C          47.1823   12.3030   30.8118 C.3   7322  UNL7322     0.0000
   7370 C          19.4694   56.7375   80.2745 C.3   7323  UNL7323     0.0000
   7371 C          24.9651   13.6227   34.5203 C.3   7324  UNL7324     0.0000
   7372 C          86.1212   53.0290   78.9548 C.3   7325  UNL7325     0.0000
   7373 C          69.3996    8.5945   32.1315 C.3   7326  UNL7326     0.0000
   7374 C          41.6867   58.0572   76.5660 C.3   7327  UNL7327     0.0000
   7375 C          13.6227   76.5660   86.1212 C.3   7328  UNL7328     0.0000
   7376 C          53.0290   32.1315   24.9651 C.3   7329  UNL7329     0.0000
   7377 C           8.5945   78.9548   41.6867 C.3   7330  UNL7330     0.0000
   7378 C          58.0572   34.5203   69.3996 C.3   7331  UNL7331     0.0000
   7379 C          76.5660   24.9651    8.5945 C.3   7332  UNL7332     0.0000
   7380 C          32.1315   86.1212   58.0572 C.3   7333  UNL7333     0.0000
   7381 C          78.9548   69.3996   13.6227 C.3   7334  UNL7334     0.0000
   7382 C          34.5203   41.6867   53.0290 C.3   7335  UNL7335     0.0000
   7383 C          53.0290   86.1212   78.9548 C.3   7336  UNL7336     0.0000
   7384 C          13.6227   24.9651   34.5203 C.3   7337  UNL7337     0.0000
   7385 C          58.0572   41.6867   76.5660 C.3   7338  UNL7338     0.0000
   7386 C           8.5945   69.3996   32.1315 C.3   7339  UNL7339     0.0000
   7387 C          78.9548    8.5945   41.6867 C.3   7340  UNL7340     0.0000
   7388 C          34.5203   58.0572   69.3996 C.3   7341  UNL7341     0.0000
   7389 C          76.5660   13.6227   86.1212 C.3   7342  UNL7342     0.0000
   7390 C          32.1315   53.0290   24.9651 C.3   7343  UNL7343     0.0000
   7391 C          41.6867   34.5203   53.0290 C.3   7344  UNL7344     0.0000
   7392 C          69.3996   78.9548   13.6227 C.3   7345  UNL7345     0.0000
   7393 C          86.1212   32.1315   58.0572 C.3   7346  UNL7346     0.0000
   7394 C          24.9651   76.5660    8.5945 C.3   7347  UNL7347     0.0000
   7395 C          19.4694   30.8118   54.3487 C.3   7348  UNL7348     0.0000
   7396 C          47.1823   80.2745    9.9142 C.3   7349  UNL7349     0.0000
   7397 C          63.9039   35.8400   56.7375 C.3   7350  UNL7350     0.0000
   7398 C           2.7478   75.2463   12.3030 C.3   7351  UNL7351     0.0000
   7399 C          30.8118   56.7375    2.7478 C.3   7352  UNL7352     0.0000
   7400 C          80.2745   12.3030   63.9039 C.3   7353  UNL7353     0.0000
   7401 C          35.8400   54.3487   47.1823 C.3   7354  UNL7354     0.0000
   7402 C          75.2463    9.9142   19.4694 C.3   7355  UNL7355     0.0000
   7403 C          56.7375   19.4694   80.2745 C.3   7356  UNL7356     0.0000
   7404 C          12.3030   47.1823   30.8118 C.3   7357  UNL7357     0.0000
   7405 C          54.3487   63.9039   75.2463 C.3   7358  UNL7358     0.0000
   7406 C           9.9142    2.7478   35.8400 C.3   7359  UNL7359     0.0000
   7407 C          35.8400    2.7478    9.9142 C.3   7360  UNL7360     0.0000
   7408 C          75.2463   63.9039   54.3487 C.3   7361  UNL7361     0.0000
   7409 C          30.8118   47.1823   12.3030 C.3   7362  UNL7362     0.0000
   7410 C          80.2745   19.4694   56.7375 C.3   7363  UNL7363     0.0000
   7411 C           9.9142   80.2745   47.1823 C.3   7364  UNL7364     0.0000
   7412 C          54.3487   30.8118   19.4694 C.3   7365  UNL7365     0.0000
   7413 C          12.3030   75.2463    2.7478 C.3   7366  UNL7366     0.0000
   7414 C          56.7375   35.8400   63.9039 C.3   7367  UNL7367     0.0000
   7415 C          47.1823   54.3487   35.8400 C.3   7368  UNL7368     0.0000
   7416 C          19.4694    9.9142   75.2463 C.3   7369  UNL7369     0.0000
   7417 C           2.7478   56.7375   30.8118 C.3   7370  UNL7370     0.0000
   7418 C          63.9039   12.3030   80.2745 C.3   7371  UNL7371     0.0000
   7419 C          69.3996   58.0572   34.5203 C.3   7372  UNL7372     0.0000
   7420 C          41.6867    8.5945   78.9548 C.3   7373  UNL7373     0.0000
   7421 C          24.9651   53.0290   32.1315 C.3   7374  UNL7374     0.0000
   7422 C          86.1212   13.6227   76.5660 C.3   7375  UNL7375     0.0000
   7423 C          58.0572   32.1315   86.1212 C.3   7376  UNL7376     0.0000
   7424 C           8.5945   76.5660   24.9651 C.3   7377  UNL7377     0.0000
   7425 C          53.0290   34.5203   41.6867 C.3   7378  UNL7378     0.0000
   7426 C          13.6227   78.9548   69.3996 C.3   7379  UNL7379     0.0000
   7427 C          32.1315   69.3996    8.5945 C.3   7380  UNL7380     0.0000
   7428 C          76.5660   41.6867   58.0572 C.3   7381  UNL7381     0.0000
   7429 C          34.5203   24.9651   13.6227 C.3   7382  UNL7382     0.0000
   7430 C          78.9548   86.1212   53.0290 C.3   7383  UNL7383     0.0000
   7431 C          53.0290   41.6867   34.5203 C.3   7384  UNL7384     0.0000
   7432 C          13.6227   69.3996   78.9548 C.3   7385  UNL7385     0.0000
   7433 C          58.0572   86.1212   32.1315 C.3   7386  UNL7386     0.0000
   7434 C           8.5945   24.9651   76.5660 C.3   7387  UNL7387     0.0000
   7435 C          78.9548   53.0290   86.1212 C.3   7388  UNL7388     0.0000
   7436 C          34.5203   13.6227   24.9651 C.3   7389  UNL7389     0.0000
   7437 C          76.5660   58.0572   41.6867 C.3   7390  UNL7390     0.0000
   7438 C          32.1315    8.5945   69.3996 C.3   7391  UNL7391     0.0000
   7439 C          41.6867   78.9548    8.5945 C.3   7392  UNL7392     0.0000
   7440 C          69.3996   34.5203   58.0572 C.3   7393  UNL7393     0.0000
   7441 C          86.1212   76.5660   13.6227 C.3   7394  UNL7394     0.0000
   7442 C          24.9651   32.1315   53.0290 C.3   7395  UNL7395     0.0000
   7443 C          19.4694   75.2463    9.9142 C.3   7396  UNL7396     0.0000
   7444 C          47.1823   35.8400   54.3487 C.3   7397  UNL7397     0.0000
   7445 C          63.9039   80.2745   12.3030 C.3   7398  UNL7398     0.0000
   7446 C           2.7478   30.8118   56.7375 C.3   7399  UNL7399     0.0000
   7447 C          30.8118   12.3030   47.1823 C.3   7400  UNL7400     0.0000
   7448 C          80.2745   56.7375   19.4694 C.3   7401  UNL7401     0.0000
   7449 C          35.8400    9.9142    2.7478 C.3   7402  UNL7402     0.0000
   7450 C          75.2463   54.3487   63.9039 C.3   7403  UNL7403     0.0000
   7451 C          56.7375   63.9039   35.8400 C.3   7404  UNL7404     0.0000
   7452 C          12.3030    2.7478   75.2463 C.3   7405  UNL7405     0.0000
   7453 C          54.3487   19.4694   30.8118 C.3   7406  UNL7406     0.0000
   7454 C           9.9142   47.1823   80.2745 C.3   7407  UNL7407     0.0000
   7455 C          35.8400   47.1823   54.3487 C.3   7408  UNL7408     0.0000
   7456 C          75.2463   19.4694    9.9142 C.3   7409  UNL7409     0.0000
   7457 C          30.8118    2.7478   56.7375 C.3   7410  UNL7410     0.0000
   7458 C          80.2745   63.9039   12.3030 C.3   7411  UNL7411     0.0000
   7459 C           9.9142   35.8400    2.7478 C.3   7412  UNL7412     0.0000
   7460 C          54.3487   75.2463   63.9039 C.3   7413  UNL7413     0.0000
   7461 C          12.3030   30.8118   47.1823 C.3   7414  UNL7414     0.0000
   7462 C          56.7375   80.2745   19.4694 C.3   7415  UNL7415     0.0000
   7463 C          47.1823    9.9142   80.2745 C.3   7416  UNL7416     0.0000
   7464 C          19.4694   54.3487   30.8118 C.3   7417  UNL7417     0.0000
   7465 C           2.7478   12.3030   75.2463 C.3   7418  UNL7418     0.0000
   7466 C          63.9039   56.7375   35.8400 C.3   7419  UNL7419     0.0000
   7467 C          69.3996   13.6227   78.9548 C.3   7420  UNL7420     0.0000
   7468 C          41.6867   53.0290   34.5203 C.3   7421  UNL7421     0.0000
   7469 C          24.9651    8.5945   76.5660 C.3   7422  UNL7422     0.0000
   7470 C          86.1212   58.0572   32.1315 C.3   7423  UNL7423     0.0000
   7471 C          58.0572   76.5660   41.6867 C.3   7424  UNL7424     0.0000
   7472 C           8.5945   32.1315   69.3996 C.3   7425  UNL7425     0.0000
   7473 C          53.0290   78.9548   86.1212 C.3   7426  UNL7426     0.0000
   7474 C          13.6227   34.5203   24.9651 C.3   7427  UNL7427     0.0000
   7475 C          32.1315   24.9651   53.0290 C.3   7428  UNL7428     0.0000
   7476 C          76.5660   86.1212   13.6227 C.3   7429  UNL7429     0.0000
   7477 C          34.5203   69.3996   58.0572 C.3   7430  UNL7430     0.0000
   7478 C          78.9548   41.6867    8.5945 C.3   7431  UNL7431     0.0000
   7479 C          57.8617   26.3017   78.6526 C.3   7432  UNL7432     0.0000
   7480 C          13.4272   40.3501   32.4336 C.3   7433  UNL7433     0.0000
   7481 C          53.2245   70.7362   76.8681 C.3   7434  UNL7434     0.0000
   7482 C          34.2181    8.7900   84.7846 C.3   7435  UNL7435     0.0000
   7483 C          78.6526   57.8617   26.3017 C.3   7436  UNL7436     0.0000
   7484 C          32.4336   13.4272   40.3501 C.3   7437  UNL7437     0.0000
   7485 C          76.8681   53.2245   70.7362 C.3   7438  UNL7438     0.0000
   7486 C          84.7846   34.2181    8.7900 C.3   7439  UNL7439     0.0000
   7487 C          26.3017   78.6526   57.8617 C.3   7440  UNL7440     0.0000
   7488 C          40.3501   32.4336   13.4272 C.3   7441  UNL7441     0.0000
   7489 C          70.7362   76.8681   53.2245 C.3   7442  UNL7442     0.0000
   7490 C          62.5673   31.0073   10.2164 C.3   7443  UNL7443     0.0000
   7491 C           4.0844   80.0790   54.6509 C.3   7444  UNL7444     0.0000
   7492 C          18.1328   35.6445   12.0009 C.3   7445  UNL7445     0.0000
   7493 C          48.5189   75.4418   56.4354 C.3   7446  UNL7446     0.0000
   7494 C          75.4418   56.4354   48.5189 C.3   7447  UNL7447     0.0000
   7495 C          35.6445   12.0009   18.1328 C.3   7448  UNL7448     0.0000
   7496 C          80.0790   54.6509    4.0844 C.3   7449  UNL7449     0.0000
   7497 C          31.0073   10.2164   62.5673 C.3   7450  UNL7450     0.0000
   7498 C          12.0009   18.1328   35.6445 C.3   7451  UNL7451     0.0000
   7499 C          56.4354   48.5189   75.4418 C.3   7452  UNL7452     0.0000
   7500 C          10.2164   62.5673   31.0073 C.3   7453  UNL7453     0.0000
   7501 C          54.6509    4.0844   80.0790 C.3   7454  UNL7454     0.0000
   7502 C          80.0790    4.0844   54.6509 C.3   7455  UNL7455     0.0000
   7503 C          31.0073   62.5673   10.2164 C.3   7456  UNL7456     0.0000
   7504 C          75.4418   48.5189   56.4354 C.3   7457  UNL7457     0.0000
   7505 C          35.6445   18.1328   12.0009 C.3   7458  UNL7458     0.0000
   7506 C          54.6509   80.0790    4.0844 C.3   7459  UNL7459     0.0000
   7507 C          10.2164   31.0073   62.5673 C.3   7460  UNL7460     0.0000
   7508 C          56.4354   75.4418   48.5189 C.3   7461  UNL7461     0.0000
   7509 C          12.0009   35.6445   18.1328 C.3   7462  UNL7462     0.0000
   7510 C           4.0844   54.6509   80.0790 C.3   7463  UNL7463     0.0000
   7511 C          62.5673   10.2164   31.0073 C.3   7464  UNL7464     0.0000
   7512 C          48.5189   56.4354   75.4418 C.3   7465  UNL7465     0.0000
   7513 C          18.1328   12.0009   35.6445 C.3   7466  UNL7466     0.0000
   7514 C          26.3017   57.8617   78.6526 C.3   7467  UNL7467     0.0000
   7515 C          84.7846    8.7900   34.2181 C.3   7468  UNL7468     0.0000
   7516 C          70.7362   53.2245   76.8681 C.3   7469  UNL7469     0.0000
   7517 C          40.3501   13.4272   32.4336 C.3   7470  UNL7470     0.0000
   7518 C          13.4272   32.4336   40.3501 C.3   7471  UNL7471     0.0000
   7519 C          53.2245   76.8681   70.7362 C.3   7472  UNL7472     0.0000
   7520 C           8.7900   34.2181   84.7846 C.3   7473  UNL7473     0.0000
   7521 C          57.8617   78.6526   26.3017 C.3   7474  UNL7474     0.0000
   7522 C          76.8681   70.7362   53.2245 C.3   7475  UNL7475     0.0000
   7523 C          32.4336   40.3501   13.4272 C.3   7476  UNL7476     0.0000
   7524 C          78.6526   26.3017   57.8617 C.3   7477  UNL7477     0.0000
   7525 C          34.2181   84.7846    8.7900 C.3   7478  UNL7478     0.0000
   7526 C           8.7900   40.3501   78.6526 C.3   7479  UNL7479     0.0000
   7527 C          57.8617   70.7362   34.2181 C.3   7480  UNL7480     0.0000
   7528 C          13.4272   84.7846   76.8681 C.3   7481  UNL7481     0.0000
   7529 C          53.2245   26.3017   32.4336 C.3   7482  UNL7482     0.0000
   7530 C          34.2181   53.2245   40.3501 C.3   7483  UNL7483     0.0000
   7531 C          78.6526   13.4272   70.7362 C.3   7484  UNL7484     0.0000
   7532 C          32.4336   57.8617   84.7846 C.3   7485  UNL7485     0.0000
   7533 C          76.8681    8.7900   26.3017 C.3   7486  UNL7486     0.0000
   7534 C          84.7846   78.6526   53.2245 C.3   7487  UNL7487     0.0000
   7535 C          26.3017   34.2181   13.4272 C.3   7488  UNL7488     0.0000
   7536 C          40.3501   76.8681   57.8617 C.3   7489  UNL7489     0.0000
   7537 C          70.7362   32.4336    8.7900 C.3   7490  UNL7490     0.0000
   7538 C          62.5673   75.4418   54.6509 C.3   7491  UNL7491     0.0000
   7539 C           4.0844   35.6445   10.2164 C.3   7492  UNL7492     0.0000
   7540 C          18.1328   80.0790   56.4354 C.3   7493  UNL7493     0.0000
   7541 C          48.5189   31.0073   12.0009 C.3   7494  UNL7494     0.0000
   7542 C          75.4418   12.0009    4.0844 C.3   7495  UNL7495     0.0000
   7543 C          35.6445   56.4354   62.5673 C.3   7496  UNL7496     0.0000
   7544 C          80.0790   10.2164   48.5189 C.3   7497  UNL7497     0.0000
   7545 C          31.0073   54.6509   18.1328 C.3   7498  UNL7498     0.0000
   7546 C          12.0009   62.5673   80.0790 C.3   7499  UNL7499     0.0000
   7547 C          56.4354    4.0844   31.0073 C.3   7500  UNL7500     0.0000
   7548 C          10.2164   18.1328   75.4418 C.3   7501  UNL7501     0.0000
   7549 C          54.6509   48.5189   35.6445 C.3   7502  UNL7502     0.0000
   7550 C          80.0790   48.5189   10.2164 C.3   7503  UNL7503     0.0000
   7551 C          31.0073   18.1328   54.6509 C.3   7504  UNL7504     0.0000
   7552 C          75.4418    4.0844   12.0009 C.3   7505  UNL7505     0.0000
   7553 C          35.6445   62.5673   56.4354 C.3   7506  UNL7506     0.0000
   7554 C          54.6509   35.6445   48.5189 C.3   7507  UNL7507     0.0000
   7555 C          10.2164   75.4418   18.1328 C.3   7508  UNL7508     0.0000
   7556 C          56.4354   31.0073    4.0844 C.3   7509  UNL7509     0.0000
   7557 C          12.0009   80.0790   62.5673 C.3   7510  UNL7510     0.0000
   7558 C           4.0844   10.2164   35.6445 C.3   7511  UNL7511     0.0000
   7559 C          62.5673   54.6509   75.4418 C.3   7512  UNL7512     0.0000
   7560 C          48.5189   12.0009   31.0073 C.3   7513  UNL7513     0.0000
   7561 C          18.1328   56.4354   80.0790 C.3   7514  UNL7514     0.0000
   7562 C          26.3017   13.4272   34.2181 C.3   7515  UNL7515     0.0000
   7563 C          84.7846   53.2245   78.6526 C.3   7516  UNL7516     0.0000
   7564 C          70.7362    8.7900   32.4336 C.3   7517  UNL7517     0.0000
   7565 C          40.3501   57.8617   76.8681 C.3   7518  UNL7518     0.0000
   7566 C          13.4272   76.8681   84.7846 C.3   7519  UNL7519     0.0000
   7567 C          53.2245   32.4336   26.3017 C.3   7520  UNL7520     0.0000
   7568 C           8.7900   78.6526   40.3501 C.3   7521  UNL7521     0.0000
   7569 C          57.8617   34.2181   70.7362 C.3   7522  UNL7522     0.0000
   7570 C          76.8681   26.3017    8.7900 C.3   7523  UNL7523     0.0000
   7571 C          32.4336   84.7846   57.8617 C.3   7524  UNL7524     0.0000
   7572 C          78.6526   70.7362   13.4272 C.3   7525  UNL7525     0.0000
   7573 C          34.2181   40.3501   53.2245 C.3   7526  UNL7526     0.0000
   7574 C          53.2245   84.7846   78.6526 C.3   7527  UNL7527     0.0000
   7575 C          13.4272   26.3017   34.2181 C.3   7528  UNL7528     0.0000
   7576 C          57.8617   40.3501   76.8681 C.3   7529  UNL7529     0.0000
   7577 C           8.7900   70.7362   32.4336 C.3   7530  UNL7530     0.0000
   7578 C          78.6526    8.7900   40.3501 C.3   7531  UNL7531     0.0000
   7579 C          34.2181   57.8617   70.7362 C.3   7532  UNL7532     0.0000
   7580 C          76.8681   13.4272   84.7846 C.3   7533  UNL7533     0.0000
   7581 C          32.4336   53.2245   26.3017 C.3   7534  UNL7534     0.0000
   7582 C          40.3501   34.2181   53.2245 C.3   7535  UNL7535     0.0000
   7583 C          70.7362   78.6526   13.4272 C.3   7536  UNL7536     0.0000
   7584 C          84.7846   32.4336   57.8617 C.3   7537  UNL7537     0.0000
   7585 C          26.3017   76.8681    8.7900 C.3   7538  UNL7538     0.0000
   7586 C          18.1328   31.0073   54.6509 C.3   7539  UNL7539     0.0000
   7587 C          48.5189   80.0790   10.2164 C.3   7540  UNL7540     0.0000
   7588 C          62.5673   35.6445   56.4354 C.3   7541  UNL7541     0.0000
   7589 C           4.0844   75.4418   12.0009 C.3   7542  UNL7542     0.0000
   7590 C          31.0073   56.4354    4.0844 C.3   7543  UNL7543     0.0000
   7591 C          80.0790   12.0009   62.5673 C.3   7544  UNL7544     0.0000
   7592 C          35.6445   54.6509   48.5189 C.3   7545  UNL7545     0.0000
   7593 C          75.4418   10.2164   18.1328 C.3   7546  UNL7546     0.0000
   7594 C          56.4354   18.1328   80.0790 C.3   7547  UNL7547     0.0000
   7595 C          12.0009   48.5189   31.0073 C.3   7548  UNL7548     0.0000
   7596 C          54.6509   62.5673   75.4418 C.3   7549  UNL7549     0.0000
   7597 C          10.2164    4.0844   35.6445 C.3   7550  UNL7550     0.0000
   7598 C          35.6445    4.0844   10.2164 C.3   7551  UNL7551     0.0000
   7599 C          75.4418   62.5673   54.6509 C.3   7552  UNL7552     0.0000
   7600 C          31.0073   48.5189   12.0009 C.3   7553  UNL7553     0.0000
   7601 C          80.0790   18.1328   56.4354 C.3   7554  UNL7554     0.0000
   7602 C          10.2164   80.0790   48.5189 C.3   7555  UNL7555     0.0000
   7603 C          54.6509   31.0073   18.1328 C.3   7556  UNL7556     0.0000
   7604 C          12.0009   75.4418    4.0844 C.3   7557  UNL7557     0.0000
   7605 C          56.4354   35.6445   62.5673 C.3   7558  UNL7558     0.0000
   7606 C          48.5189   54.6509   35.6445 C.3   7559  UNL7559     0.0000
   7607 C          18.1328   10.2164   75.4418 C.3   7560  UNL7560     0.0000
   7608 C           4.0844   56.4354   31.0073 C.3   7561  UNL7561     0.0000
   7609 C          62.5673   12.0009   80.0790 C.3   7562  UNL7562     0.0000
   7610 C          70.7362   57.8617   34.2181 C.3   7563  UNL7563     0.0000
   7611 C          40.3501    8.7900   78.6526 C.3   7564  UNL7564     0.0000
   7612 C          26.3017   53.2245   32.4336 C.3   7565  UNL7565     0.0000
   7613 C          84.7846   13.4272   76.8681 C.3   7566  UNL7566     0.0000
   7614 C          57.8617   32.4336   84.7846 C.3   7567  UNL7567     0.0000
   7615 C           8.7900   76.8681   26.3017 C.3   7568  UNL7568     0.0000
   7616 C          53.2245   34.2181   40.3501 C.3   7569  UNL7569     0.0000
   7617 C          13.4272   78.6526   70.7362 C.3   7570  UNL7570     0.0000
   7618 C          32.4336   70.7362    8.7900 C.3   7571  UNL7571     0.0000
   7619 C          76.8681   40.3501   57.8617 C.3   7572  UNL7572     0.0000
   7620 C          34.2181   26.3017   13.4272 C.3   7573  UNL7573     0.0000
   7621 C          78.6526   84.7846   53.2245 C.3   7574  UNL7574     0.0000
   7622 C          53.2245   40.3501   34.2181 C.3   7575  UNL7575     0.0000
   7623 C          13.4272   70.7362   78.6526 C.3   7576  UNL7576     0.0000
   7624 C          57.8617   84.7846   32.4336 C.3   7577  UNL7577     0.0000
   7625 C           8.7900   26.3017   76.8681 C.3   7578  UNL7578     0.0000
   7626 C          78.6526   53.2245   84.7846 C.3   7579  UNL7579     0.0000
   7627 C          34.2181   13.4272   26.3017 C.3   7580  UNL7580     0.0000
   7628 C          76.8681   57.8617   40.3501 C.3   7581  UNL7581     0.0000
   7629 C          32.4336    8.7900   70.7362 C.3   7582  UNL7582     0.0000
   7630 C          40.3501   78.6526    8.7900 C.3   7583  UNL7583     0.0000
   7631 C          70.7362   34.2181   57.8617 C.3   7584  UNL7584     0.0000
   7632 C          84.7846   76.8681   13.4272 C.3   7585  UNL7585     0.0000
   7633 C          26.3017   32.4336   53.2245 C.3   7586  UNL7586     0.0000
   7634 C          18.1328   75.4418   10.2164 C.3   7587  UNL7587     0.0000
   7635 C          48.5189   35.6445   54.6509 C.3   7588  UNL7588     0.0000
   7636 C          62.5673   80.0790   12.0009 C.3   7589  UNL7589     0.0000
   7637 C           4.0844   31.0073   56.4354 C.3   7590  UNL7590     0.0000
   7638 C          31.0073   12.0009   48.5189 C.3   7591  UNL7591     0.0000
   7639 C          80.0790   56.4354   18.1328 C.3   7592  UNL7592     0.0000
   7640 C          35.6445   10.2164    4.0844 C.3   7593  UNL7593     0.0000
   7641 C          75.4418   54.6509   62.5673 C.3   7594  UNL7594     0.0000
   7642 C          56.4354   62.5673   35.6445 C.3   7595  UNL7595     0.0000
   7643 C          12.0009    4.0844   75.4418 C.3   7596  UNL7596     0.0000
   7644 C          54.6509   18.1328   31.0073 C.3   7597  UNL7597     0.0000
   7645 C          10.2164   48.5189   80.0790 C.3   7598  UNL7598     0.0000
   7646 C          35.6445   48.5189   54.6509 C.3   7599  UNL7599     0.0000
   7647 C          75.4418   18.1328   10.2164 C.3   7600  UNL7600     0.0000
   7648 C          31.0073    4.0844   56.4354 C.3   7601  UNL7601     0.0000
   7649 C          80.0790   62.5673   12.0009 C.3   7602  UNL7602     0.0000
   7650 C          10.2164   35.6445    4.0844 C.3   7603  UNL7603     0.0000
   7651 C          54.6509   75.4418   62.5673 C.3   7604  UNL7604     0.0000
   7652 C          12.0009   31.0073   48.5189 C.3   7605  UNL7605     0.0000
   7653 C          56.4354   80.0790   18.1328 C.3   7606  UNL7606     0.0000
   7654 C          48.5189   10.2164   80.0790 C.3   7607  UNL7607     0.0000
   7655 C          18.1328   54.6509   31.0073 C.3   7608  UNL7608     0.0000
   7656 C           4.0844   12.0009   75.4418 C.3   7609  UNL7609     0.0000
   7657 C          62.5673   56.4354   35.6445 C.3   7610  UNL7610     0.0000
   7658 C          70.7362   13.4272   78.6526 C.3   7611  UNL7611     0.0000
   7659 C          40.3501   53.2245   34.2181 C.3   7612  UNL7612     0.0000
   7660 C          26.3017    8.7900   76.8681 C.3   7613  UNL7613     0.0000
   7661 C          84.7846   57.8617   32.4336 C.3   7614  UNL7614     0.0000
   7662 C          57.8617   76.8681   40.3501 C.3   7615  UNL7615     0.0000
   7663 C           8.7900   32.4336   70.7362 C.3   7616  UNL7616     0.0000
   7664 C          53.2245   78.6526   84.7846 C.3   7617  UNL7617     0.0000
   7665 C          13.4272   34.2181   26.3017 C.3   7618  UNL7618     0.0000
   7666 C          32.4336   26.3017   53.2245 C.3   7619  UNL7619     0.0000
   7667 C          76.8681   84.7846   13.4272 C.3   7620  UNL7620     0.0000
   7668 C          34.2181   70.7362   57.8617 C.3   7621  UNL7621     0.0000
   7669 C          78.6526   40.3501    8.7900 C.3   7622  UNL7622     0.0000
   7670 C          58.2341   28.7136   78.9894 C.3   7623  UNL7623     0.0000
   7671 C          13.7996   37.9382   32.0968 C.3   7624  UNL7624     0.0000
   7672 C          52.8522   73.1481   76.5313 C.3   7625  UNL7625     0.0000
   7673 C          34.5549    8.4177   82.3727 C.3   7626  UNL7626     0.0000
   7674 C          78.9894   58.2341   28.7136 C.3   7627  UNL7627     0.0000
   7675 C          32.0968   13.7996   37.9382 C.3   7628  UNL7628     0.0000
   7676 C          76.5313   52.8522   73.1481 C.3   7629  UNL7629     0.0000
   7677 C          82.3727   34.5549    8.4177 C.3   7630  UNL7630     0.0000
   7678 C          28.7136   78.9894   58.2341 C.3   7631  UNL7631     0.0000
   7679 C          37.9382   32.0968   13.7996 C.3   7632  UNL7632     0.0000
   7680 C          73.1481   76.5313   52.8522 C.3   7633  UNL7633     0.0000
   7681 C          60.1554   30.6349    9.8796 C.3   7634  UNL7634     0.0000
   7682 C           6.4963   80.4513   54.3141 C.3   7635  UNL7635     0.0000
   7683 C          15.7209   36.0168   12.3377 C.3   7636  UNL7636     0.0000
   7684 C          50.9308   75.0694   56.7722 C.3   7637  UNL7637     0.0000
   7685 C          75.0694   56.7722   50.9308 C.3   7638  UNL7638     0.0000
   7686 C          36.0168   12.3377   15.7209 C.3   7639  UNL7639     0.0000
   7687 C          80.4513   54.3141    6.4963 C.3   7640  UNL7640     0.0000
   7688 C          30.6349    9.8796   60.1554 C.3   7641  UNL7641     0.0000
   7689 C          12.3377   15.7209   36.0168 C.3   7642  UNL7642     0.0000
   7690 C          56.7722   50.9308   75.0694 C.3   7643  UNL7643     0.0000
   7691 C           9.8796   60.1554   30.6349 C.3   7644  UNL7644     0.0000
   7692 C          54.3141    6.4963   80.4513 C.3   7645  UNL7645     0.0000
   7693 C          80.4513    6.4963   54.3141 C.3   7646  UNL7646     0.0000
   7694 C          30.6349   60.1554    9.8796 C.3   7647  UNL7647     0.0000
   7695 C          75.0694   50.9308   56.7722 C.3   7648  UNL7648     0.0000
   7696 C          36.0168   15.7209   12.3377 C.3   7649  UNL7649     0.0000
   7697 C          54.3141   80.4513    6.4963 C.3   7650  UNL7650     0.0000
   7698 C           9.8796   30.6349   60.1554 C.3   7651  UNL7651     0.0000
   7699 C          56.7722   75.0694   50.9308 C.3   7652  UNL7652     0.0000
   7700 C          12.3377   36.0168   15.7209 C.3   7653  UNL7653     0.0000
   7701 C           6.4963   54.3141   80.4513 C.3   7654  UNL7654     0.0000
   7702 C          60.1554    9.8796   30.6349 C.3   7655  UNL7655     0.0000
   7703 C          50.9308   56.7722   75.0694 C.3   7656  UNL7656     0.0000
   7704 C          15.7209   12.3377   36.0168 C.3   7657  UNL7657     0.0000
   7705 C          28.7136   58.2341   78.9894 C.3   7658  UNL7658     0.0000
   7706 C          82.3727    8.4177   34.5549 C.3   7659  UNL7659     0.0000
   7707 C          73.1481   52.8522   76.5313 C.3   7660  UNL7660     0.0000
   7708 C          37.9382   13.7996   32.0968 C.3   7661  UNL7661     0.0000
   7709 C          13.7996   32.0968   37.9382 C.3   7662  UNL7662     0.0000
   7710 C          52.8522   76.5313   73.1481 C.3   7663  UNL7663     0.0000
   7711 C           8.4177   34.5549   82.3727 C.3   7664  UNL7664     0.0000
   7712 C          58.2341   78.9894   28.7136 C.3   7665  UNL7665     0.0000
   7713 C          76.5313   73.1481   52.8522 C.3   7666  UNL7666     0.0000
   7714 C          32.0968   37.9382   13.7996 C.3   7667  UNL7667     0.0000
   7715 C          78.9894   28.7136   58.2341 C.3   7668  UNL7668     0.0000
   7716 C          34.5549   82.3727    8.4177 C.3   7669  UNL7669     0.0000
   7717 C           8.4177   37.9382   78.9894 C.3   7670  UNL7670     0.0000
   7718 C          58.2341   73.1481   34.5549 C.3   7671  UNL7671     0.0000
   7719 C          13.7996   82.3727   76.5313 C.3   7672  UNL7672     0.0000
   7720 C          52.8522   28.7136   32.0968 C.3   7673  UNL7673     0.0000
   7721 C          34.5549   52.8522   37.9382 C.3   7674  UNL7674     0.0000
   7722 C          78.9894   13.7996   73.1481 C.3   7675  UNL7675     0.0000
   7723 C          32.0968   58.2341   82.3727 C.3   7676  UNL7676     0.0000
   7724 C          76.5313    8.4177   28.7136 C.3   7677  UNL7677     0.0000
   7725 C          82.3727   78.9894   52.8522 C.3   7678  UNL7678     0.0000
   7726 C          28.7136   34.5549   13.7996 C.3   7679  UNL7679     0.0000
   7727 C          37.9382   76.5313   58.2341 C.3   7680  UNL7680     0.0000
   7728 C          73.1481   32.0968    8.4177 C.3   7681  UNL7681     0.0000
   7729 C          60.1554   75.0694   54.3141 C.3   7682  UNL7682     0.0000
   7730 C           6.4963   36.0168    9.8796 C.3   7683  UNL7683     0.0000
   7731 C          15.7209   80.4513   56.7722 C.3   7684  UNL7684     0.0000
   7732 C          50.9308   30.6349   12.3377 C.3   7685  UNL7685     0.0000
   7733 C          75.0694   12.3377    6.4963 C.3   7686  UNL7686     0.0000
   7734 C          36.0168   56.7722   60.1554 C.3   7687  UNL7687     0.0000
   7735 C          80.4513    9.8796   50.9308 C.3   7688  UNL7688     0.0000
   7736 C          30.6349   54.3141   15.7209 C.3   7689  UNL7689     0.0000
   7737 C          12.3377   60.1554   80.4513 C.3   7690  UNL7690     0.0000
   7738 C          56.7722    6.4963   30.6349 C.3   7691  UNL7691     0.0000
   7739 C           9.8796   15.7209   75.0694 C.3   7692  UNL7692     0.0000
   7740 C          54.3141   50.9308   36.0168 C.3   7693  UNL7693     0.0000
   7741 C          80.4513   50.9308    9.8796 C.3   7694  UNL7694     0.0000
   7742 C          30.6349   15.7209   54.3141 C.3   7695  UNL7695     0.0000
   7743 C          75.0694    6.4963   12.3377 C.3   7696  UNL7696     0.0000
   7744 C          36.0168   60.1554   56.7722 C.3   7697  UNL7697     0.0000
   7745 C          54.3141   36.0168   50.9308 C.3   7698  UNL7698     0.0000
   7746 C           9.8796   75.0694   15.7209 C.3   7699  UNL7699     0.0000
   7747 C          56.7722   30.6349    6.4963 C.3   7700  UNL7700     0.0000
   7748 C          12.3377   80.4513   60.1554 C.3   7701  UNL7701     0.0000
   7749 C           6.4963    9.8796   36.0168 C.3   7702  UNL7702     0.0000
   7750 C          60.1554   54.3141   75.0694 C.3   7703  UNL7703     0.0000
   7751 C          50.9308   12.3377   30.6349 C.3   7704  UNL7704     0.0000
   7752 C          15.7209   56.7722   80.4513 C.3   7705  UNL7705     0.0000
   7753 C          28.7136   13.7996   34.5549 C.3   7706  UNL7706     0.0000
   7754 C          82.3727   52.8522   78.9894 C.3   7707  UNL7707     0.0000
   7755 C          73.1481    8.4177   32.0968 C.3   7708  UNL7708     0.0000
   7756 C          37.9382   58.2341   76.5313 C.3   7709  UNL7709     0.0000
   7757 C          13.7996   76.5313   82.3727 C.3   7710  UNL7710     0.0000
   7758 C          52.8522   32.0968   28.7136 C.3   7711  UNL7711     0.0000
   7759 C           8.4177   78.9894   37.9382 C.3   7712  UNL7712     0.0000
   7760 C          58.2341   34.5549   73.1481 C.3   7713  UNL7713     0.0000
   7761 C          76.5313   28.7136    8.4177 C.3   7714  UNL7714     0.0000
   7762 C          32.0968   82.3727   58.2341 C.3   7715  UNL7715     0.0000
   7763 C          78.9894   73.1481   13.7996 C.3   7716  UNL7716     0.0000
   7764 C          34.5549   37.9382   52.8522 C.3   7717  UNL7717     0.0000
   7765 C          52.8522   82.3727   78.9894 C.3   7718  UNL7718     0.0000
   7766 C          13.7996   28.7136   34.5549 C.3   7719  UNL7719     0.0000
   7767 C          58.2341   37.9382   76.5313 C.3   7720  UNL7720     0.0000
   7768 C           8.4177   73.1481   32.0968 C.3   7721  UNL7721     0.0000
   7769 C          78.9894    8.4177   37.9382 C.3   7722  UNL7722     0.0000
   7770 C          34.5549   58.2341   73.1481 C.3   7723  UNL7723     0.0000
   7771 C          76.5313   13.7996   82.3727 C.3   7724  UNL7724     0.0000
   7772 C          32.0968   52.8522   28.7136 C.3   7725  UNL7725     0.0000
   7773 C          37.9382   34.5549   52.8522 C.3   7726  UNL7726     0.0000
   7774 C          73.1481   78.9894   13.7996 C.3   7727  UNL7727     0.0000
   7775 C          82.3727   32.0968   58.2341 C.3   7728  UNL7728     0.0000
   7776 C          28.7136   76.5313    8.4177 C.3   7729  UNL7729     0.0000
   7777 C          15.7209   30.6349   54.3141 C.3   7730  UNL7730     0.0000
   7778 C          50.9308   80.4513    9.8796 C.3   7731  UNL7731     0.0000
   7779 C          60.1554   36.0168   56.7722 C.3   7732  UNL7732     0.0000
   7780 C           6.4963   75.0694   12.3377 C.3   7733  UNL7733     0.0000
   7781 C          30.6349   56.7722    6.4963 C.3   7734  UNL7734     0.0000
   7782 C          80.4513   12.3377   60.1554 C.3   7735  UNL7735     0.0000
   7783 C          36.0168   54.3141   50.9308 C.3   7736  UNL7736     0.0000
   7784 C          75.0694    9.8796   15.7209 C.3   7737  UNL7737     0.0000
   7785 C          56.7722   15.7209   80.4513 C.3   7738  UNL7738     0.0000
   7786 C          12.3377   50.9308   30.6349 C.3   7739  UNL7739     0.0000
   7787 C          54.3141   60.1554   75.0694 C.3   7740  UNL7740     0.0000
   7788 C           9.8796    6.4963   36.0168 C.3   7741  UNL7741     0.0000
   7789 C          36.0168    6.4963    9.8796 C.3   7742  UNL7742     0.0000
   7790 C          75.0694   60.1554   54.3141 C.3   7743  UNL7743     0.0000
   7791 C          30.6349   50.9308   12.3377 C.3   7744  UNL7744     0.0000
   7792 C          80.4513   15.7209   56.7722 C.3   7745  UNL7745     0.0000
   7793 C           9.8796   80.4513   50.9308 C.3   7746  UNL7746     0.0000
   7794 C          54.3141   30.6349   15.7209 C.3   7747  UNL7747     0.0000
   7795 C          12.3377   75.0694    6.4963 C.3   7748  UNL7748     0.0000
   7796 C          56.7722   36.0168   60.1554 C.3   7749  UNL7749     0.0000
   7797 C          50.9308   54.3141   36.0168 C.3   7750  UNL7750     0.0000
   7798 C          15.7209    9.8796   75.0694 C.3   7751  UNL7751     0.0000
   7799 C           6.4963   56.7722   30.6349 C.3   7752  UNL7752     0.0000
   7800 C          60.1554   12.3377   80.4513 C.3   7753  UNL7753     0.0000
   7801 C          73.1481   58.2341   34.5549 C.3   7754  UNL7754     0.0000
   7802 C          37.9382    8.4177   78.9894 C.3   7755  UNL7755     0.0000
   7803 C          28.7136   52.8522   32.0968 C.3   7756  UNL7756     0.0000
   7804 C          82.3727   13.7996   76.5313 C.3   7757  UNL7757     0.0000
   7805 C          58.2341   32.0968   82.3727 C.3   7758  UNL7758     0.0000
   7806 C           8.4177   76.5313   28.7136 C.3   7759  UNL7759     0.0000
   7807 C          52.8522   34.5549   37.9382 C.3   7760  UNL7760     0.0000
   7808 C          13.7996   78.9894   73.1481 C.3   7761  UNL7761     0.0000
   7809 C          32.0968   73.1481    8.4177 C.3   7762  UNL7762     0.0000
   7810 C          76.5313   37.9382   58.2341 C.3   7763  UNL7763     0.0000
   7811 C          34.5549   28.7136   13.7996 C.3   7764  UNL7764     0.0000
   7812 C          78.9894   82.3727   52.8522 C.3   7765  UNL7765     0.0000
   7813 C          52.8522   37.9382   34.5549 C.3   7766  UNL7766     0.0000
   7814 C          13.7996   73.1481   78.9894 C.3   7767  UNL7767     0.0000
   7815 C          58.2341   82.3727   32.0968 C.3   7768  UNL7768     0.0000
   7816 C           8.4177   28.7136   76.5313 C.3   7769  UNL7769     0.0000
   7817 C          78.9894   52.8522   82.3727 C.3   7770  UNL7770     0.0000
   7818 C          34.5549   13.7996   28.7136 C.3   7771  UNL7771     0.0000
   7819 C          76.5313   58.2341   37.9382 C.3   7772  UNL7772     0.0000
   7820 C          32.0968    8.4177   73.1481 C.3   7773  UNL7773     0.0000
   7821 C          37.9382   78.9894    8.4177 C.3   7774  UNL7774     0.0000
   7822 C          73.1481   34.5549   58.2341 C.3   7775  UNL7775     0.0000
   7823 C          82.3727   76.5313   13.7996 C.3   7776  UNL7776     0.0000
   7824 C          28.7136   32.0968   52.8522 C.3   7777  UNL7777     0.0000
   7825 C          15.7209   75.0694    9.8796 C.3   7778  UNL7778     0.0000
   7826 C          50.9308   36.0168   54.3141 C.3   7779  UNL7779     0.0000
   7827 C          60.1554   80.4513   12.3377 C.3   7780  UNL7780     0.0000
   7828 C           6.4963   30.6349   56.7722 C.3   7781  UNL7781     0.0000
   7829 C          30.6349   12.3377   50.9308 C.3   7782  UNL7782     0.0000
   7830 C          80.4513   56.7722   15.7209 C.3   7783  UNL7783     0.0000
   7831 C          36.0168    9.8796    6.4963 C.3   7784  UNL7784     0.0000
   7832 C          75.0694   54.3141   60.1554 C.3   7785  UNL7785     0.0000
   7833 C          56.7722   60.1554   36.0168 C.3   7786  UNL7786     0.0000
   7834 C          12.3377    6.4963   75.0694 C.3   7787  UNL7787     0.0000
   7835 C          54.3141   15.7209   30.6349 C.3   7788  UNL7788     0.0000
   7836 C           9.8796   50.9308   80.4513 C.3   7789  UNL7789     0.0000
   7837 C          36.0168   50.9308   54.3141 C.3   7790  UNL7790     0.0000
   7838 C          75.0694   15.7209    9.8796 C.3   7791  UNL7791     0.0000
   7839 C          30.6349    6.4963   56.7722 C.3   7792  UNL7792     0.0000
   7840 C          80.4513   60.1554   12.3377 C.3   7793  UNL7793     0.0000
   7841 C           9.8796   36.0168    6.4963 C.3   7794  UNL7794     0.0000
   7842 C          54.3141   75.0694   60.1554 C.3   7795  UNL7795     0.0000
   7843 C          12.3377   30.6349   50.9308 C.3   7796  UNL7796     0.0000
   7844 C          56.7722   80.4513   15.7209 C.3   7797  UNL7797     0.0000
   7845 C          50.9308    9.8796   80.4513 C.3   7798  UNL7798     0.0000
   7846 C          15.7209   54.3141   30.6349 C.3   7799  UNL7799     0.0000
   7847 C           6.4963   12.3377   75.0694 C.3   7800  UNL7800     0.0000
   7848 C          60.1554   56.7722   36.0168 C.3   7801  UNL7801     0.0000
   7849 C          73.1481   13.7996   78.9894 C.3   7802  UNL7802     0.0000
   7850 C          37.9382   52.8522   34.5549 C.3   7803  UNL7803     0.0000
   7851 C          28.7136    8.4177   76.5313 C.3   7804  UNL7804     0.0000
   7852 C          82.3727   58.2341   32.0968 C.3   7805  UNL7805     0.0000
   7853 C          58.2341   76.5313   37.9382 C.3   7806  UNL7806     0.0000
   7854 C           8.4177   32.0968   73.1481 C.3   7807  UNL7807     0.0000
   7855 C          52.8522   78.9894   82.3727 C.3   7808  UNL7808     0.0000
   7856 C          13.7996   34.5549   28.7136 C.3   7809  UNL7809     0.0000
   7857 C          32.0968   28.7136   52.8522 C.3   7810  UNL7810     0.0000
   7858 C          76.5313   82.3727   13.7996 C.3   7811  UNL7811     0.0000
   7859 C          34.5549   73.1481   58.2341 C.3   7812  UNL7812     0.0000
   7860 C          78.9894   37.9382    8.4177 C.3   7813  UNL7813     0.0000
   7861 C          56.8495   30.2786   77.5906 C.3   7814  UNL7814     0.0000
   7862 C          12.4150   36.3732   33.4956 C.3   7815  UNL7815     0.0000
   7863 C          54.2367   74.7130   77.9301 C.3   7816  UNL7816     0.0000
   7864 C          33.1561    9.8022   80.8077 C.3   7817  UNL7817     0.0000
   7865 C          77.5906   56.8495   30.2786 C.3   7818  UNL7818     0.0000
   7866 C          33.4956   12.4150   36.3732 C.3   7819  UNL7819     0.0000
   7867 C          77.9301   54.2367   74.7130 C.3   7820  UNL7820     0.0000
   7868 C          80.8077   33.1561    9.8022 C.3   7821  UNL7821     0.0000
   7869 C          30.2786   77.5906   56.8495 C.3   7822  UNL7822     0.0000
   7870 C          36.3732   33.4956   12.4150 C.3   7823  UNL7823     0.0000
   7871 C          74.7130   77.9301   54.2367 C.3   7824  UNL7824     0.0000
   7872 C          58.5904   32.0195   11.2784 C.3   7825  UNL7825     0.0000
   7873 C           8.0613   79.0667   55.7129 C.3   7826  UNL7826     0.0000
   7874 C          14.1559   34.6322   10.9389 C.3   7827  UNL7827     0.0000
   7875 C          52.4958   76.4540   55.3734 C.3   7828  UNL7828     0.0000
   7876 C          76.4540   55.3734   52.4958 C.3   7829  UNL7829     0.0000
   7877 C          34.6322   10.9389   14.1559 C.3   7830  UNL7830     0.0000
   7878 C          79.0667   55.7129    8.0613 C.3   7831  UNL7831     0.0000
   7879 C          32.0195   11.2784   58.5904 C.3   7832  UNL7832     0.0000
   7880 C          10.9389   14.1559   34.6322 C.3   7833  UNL7833     0.0000
   7881 C          55.3734   52.4958   76.4540 C.3   7834  UNL7834     0.0000
   7882 C          11.2784   58.5904   32.0195 C.3   7835  UNL7835     0.0000
   7883 C          55.7129    8.0613   79.0667 C.3   7836  UNL7836     0.0000
   7884 C          79.0667    8.0613   55.7129 C.3   7837  UNL7837     0.0000
   7885 C          32.0195   58.5904   11.2784 C.3   7838  UNL7838     0.0000
   7886 C          76.4540   52.4958   55.3734 C.3   7839  UNL7839     0.0000
   7887 C          34.6322   14.1559   10.9389 C.3   7840  UNL7840     0.0000
   7888 C          55.7129   79.0667    8.0613 C.3   7841  UNL7841     0.0000
   7889 C          11.2784   32.0195   58.5904 C.3   7842  UNL7842     0.0000
   7890 C          55.3734   76.4540   52.4958 C.3   7843  UNL7843     0.0000
   7891 C          10.9389   34.6322   14.1559 C.3   7844  UNL7844     0.0000
   7892 C           8.0613   55.7129   79.0667 C.3   7845  UNL7845     0.0000
   7893 C          58.5904   11.2784   32.0195 C.3   7846  UNL7846     0.0000
   7894 C          52.4958   55.3734   76.4540 C.3   7847  UNL7847     0.0000
   7895 C          14.1559   10.9389   34.6322 C.3   7848  UNL7848     0.0000
   7896 C          30.2786   56.8495   77.5906 C.3   7849  UNL7849     0.0000
   7897 C          80.8077    9.8022   33.1561 C.3   7850  UNL7850     0.0000
   7898 C          74.7130   54.2367   77.9301 C.3   7851  UNL7851     0.0000
   7899 C          36.3732   12.4150   33.4956 C.3   7852  UNL7852     0.0000
   7900 C          12.4150   33.4956   36.3732 C.3   7853  UNL7853     0.0000
   7901 C          54.2367   77.9301   74.7130 C.3   7854  UNL7854     0.0000
   7902 C           9.8022   33.1561   80.8077 C.3   7855  UNL7855     0.0000
   7903 C          56.8495   77.5906   30.2786 C.3   7856  UNL7856     0.0000
   7904 C          77.9301   74.7130   54.2367 C.3   7857  UNL7857     0.0000
   7905 C          33.4956   36.3732   12.4150 C.3   7858  UNL7858     0.0000
   7906 C          77.5906   30.2786   56.8495 C.3   7859  UNL7859     0.0000
   7907 C          33.1561   80.8077    9.8022 C.3   7860  UNL7860     0.0000
   7908 C           9.8022   36.3732   77.5906 C.3   7861  UNL7861     0.0000
   7909 C          56.8495   74.7130   33.1561 C.3   7862  UNL7862     0.0000
   7910 C          12.4150   80.8077   77.9301 C.3   7863  UNL7863     0.0000
   7911 C          54.2367   30.2786   33.4956 C.3   7864  UNL7864     0.0000
   7912 C          33.1561   54.2367   36.3732 C.3   7865  UNL7865     0.0000
   7913 C          77.5906   12.4150   74.7130 C.3   7866  UNL7866     0.0000
   7914 C          33.4956   56.8495   80.8077 C.3   7867  UNL7867     0.0000
   7915 C          77.9301    9.8022   30.2786 C.3   7868  UNL7868     0.0000
   7916 C          80.8077   77.5906   54.2367 C.3   7869  UNL7869     0.0000
   7917 C          30.2786   33.1561   12.4150 C.3   7870  UNL7870     0.0000
   7918 C          36.3732   77.9301   56.8495 C.3   7871  UNL7871     0.0000
   7919 C          74.7130   33.4956    9.8022 C.3   7872  UNL7872     0.0000
   7920 C          58.5904   76.4540   55.7129 C.3   7873  UNL7873     0.0000
   7921 C           8.0613   34.6322   11.2784 C.3   7874  UNL7874     0.0000
   7922 C          14.1559   79.0667   55.3734 C.3   7875  UNL7875     0.0000
   7923 C          52.4958   32.0195   10.9389 C.3   7876  UNL7876     0.0000
   7924 C          76.4540   10.9389    8.0613 C.3   7877  UNL7877     0.0000
   7925 C          34.6322   55.3734   58.5904 C.3   7878  UNL7878     0.0000
   7926 C          79.0667   11.2784   52.4958 C.3   7879  UNL7879     0.0000
   7927 C          32.0195   55.7129   14.1559 C.3   7880  UNL7880     0.0000
   7928 C          10.9389   58.5904   79.0667 C.3   7881  UNL7881     0.0000
   7929 C          55.3734    8.0613   32.0195 C.3   7882  UNL7882     0.0000
   7930 C          11.2784   14.1559   76.4540 C.3   7883  UNL7883     0.0000
   7931 C          55.7129   52.4958   34.6322 C.3   7884  UNL7884     0.0000
   7932 C          79.0667   52.4958   11.2784 C.3   7885  UNL7885     0.0000
   7933 C          32.0195   14.1559   55.7129 C.3   7886  UNL7886     0.0000
   7934 C          76.4540    8.0613   10.9389 C.3   7887  UNL7887     0.0000
   7935 C          34.6322   58.5904   55.3734 C.3   7888  UNL7888     0.0000
   7936 C          55.7129   34.6322   52.4958 C.3   7889  UNL7889     0.0000
   7937 C          11.2784   76.4540   14.1559 C.3   7890  UNL7890     0.0000
   7938 C          55.3734   32.0195    8.0613 C.3   7891  UNL7891     0.0000
   7939 C          10.9389   79.0667   58.5904 C.3   7892  UNL7892     0.0000
   7940 C           8.0613   11.2784   34.6322 C.3   7893  UNL7893     0.0000
   7941 C          58.5904   55.7129   76.4540 C.3   7894  UNL7894     0.0000
   7942 C          52.4958   10.9389   32.0195 C.3   7895  UNL7895     0.0000
   7943 C          14.1559   55.3734   79.0667 C.3   7896  UNL7896     0.0000
   7944 C          30.2786   12.4150   33.1561 C.3   7897  UNL7897     0.0000
   7945 C          80.8077   54.2367   77.5906 C.3   7898  UNL7898     0.0000
   7946 C          74.7130    9.8022   33.4956 C.3   7899  UNL7899     0.0000
   7947 C          36.3732   56.8495   77.9301 C.3   7900  UNL7900     0.0000
   7948 C          12.4150   77.9301   80.8077 C.3   7901  UNL7901     0.0000
   7949 C          54.2367   33.4956   30.2786 C.3   7902  UNL7902     0.0000
   7950 C           9.8022   77.5906   36.3732 C.3   7903  UNL7903     0.0000
   7951 C          56.8495   33.1561   74.7130 C.3   7904  UNL7904     0.0000
   7952 C          77.9301   30.2786    9.8022 C.3   7905  UNL7905     0.0000
   7953 C          33.4956   80.8077   56.8495 C.3   7906  UNL7906     0.0000
   7954 C          77.5906   74.7130   12.4150 C.3   7907  UNL7907     0.0000
   7955 C          33.1561   36.3732   54.2367 C.3   7908  UNL7908     0.0000
   7956 C          54.2367   80.8077   77.5906 C.3   7909  UNL7909     0.0000
   7957 C          12.4150   30.2786   33.1561 C.3   7910  UNL7910     0.0000
   7958 C          56.8495   36.3732   77.9301 C.3   7911  UNL7911     0.0000
   7959 C           9.8022   74.7130   33.4956 C.3   7912  UNL7912     0.0000
   7960 C          77.5906    9.8022   36.3732 C.3   7913  UNL7913     0.0000
   7961 C          33.1561   56.8495   74.7130 C.3   7914  UNL7914     0.0000
   7962 C          77.9301   12.4150   80.8077 C.3   7915  UNL7915     0.0000
   7963 C          33.4956   54.2367   30.2786 C.3   7916  UNL7916     0.0000
   7964 C          36.3732   33.1561   54.2367 C.3   7917  UNL7917     0.0000
   7965 C          74.7130   77.5906   12.4150 C.3   7918  UNL7918     0.0000
   7966 C          80.8077   33.4956   56.8495 C.3   7919  UNL7919     0.0000
   7967 C          30.2786   77.9301    9.8022 C.3   7920  UNL7920     0.0000
   7968 C          14.1559   32.0195   55.7129 C.3   7921  UNL7921     0.0000
   7969 C          52.4958   79.0667   11.2784 C.3   7922  UNL7922     0.0000
   7970 C          58.5904   34.6322   55.3734 C.3   7923  UNL7923     0.0000
   7971 C           8.0613   76.4540   10.9389 C.3   7924  UNL7924     0.0000
   7972 C          32.0195   55.3734    8.0613 C.3   7925  UNL7925     0.0000
   7973 C          79.0667   10.9389   58.5904 C.3   7926  UNL7926     0.0000
   7974 C          34.6322   55.7129   52.4958 C.3   7927  UNL7927     0.0000
   7975 C          76.4540   11.2784   14.1559 C.3   7928  UNL7928     0.0000
   7976 C          55.3734   14.1559   79.0667 C.3   7929  UNL7929     0.0000
   7977 C          10.9389   52.4958   32.0195 C.3   7930  UNL7930     0.0000
   7978 C          55.7129   58.5904   76.4540 C.3   7931  UNL7931     0.0000
   7979 C          11.2784    8.0613   34.6322 C.3   7932  UNL7932     0.0000
   7980 C          34.6322    8.0613   11.2784 C.3   7933  UNL7933     0.0000
   7981 C          76.4540   58.5904   55.7129 C.3   7934  UNL7934     0.0000
   7982 C          32.0195   52.4958   10.9389 C.3   7935  UNL7935     0.0000
   7983 C          79.0667   14.1559   55.3734 C.3   7936  UNL7936     0.0000
   7984 C          11.2784   79.0667   52.4958 C.3   7937  UNL7937     0.0000
   7985 C          55.7129   32.0195   14.1559 C.3   7938  UNL7938     0.0000
   7986 C          10.9389   76.4540    8.0613 C.3   7939  UNL7939     0.0000
   7987 C          55.3734   34.6322   58.5904 C.3   7940  UNL7940     0.0000
   7988 C          52.4958   55.7129   34.6322 C.3   7941  UNL7941     0.0000
   7989 C          14.1559   11.2784   76.4540 C.3   7942  UNL7942     0.0000
   7990 C           8.0613   55.3734   32.0195 C.3   7943  UNL7943     0.0000
   7991 C          58.5904   10.9389   79.0667 C.3   7944  UNL7944     0.0000
   7992 C          74.7130   56.8495   33.1561 C.3   7945  UNL7945     0.0000
   7993 C          36.3732    9.8022   77.5906 C.3   7946  UNL7946     0.0000
   7994 C          30.2786   54.2367   33.4956 C.3   7947  UNL7947     0.0000
   7995 C          80.8077   12.4150   77.9301 C.3   7948  UNL7948     0.0000
   7996 C          56.8495   33.4956   80.8077 C.3   7949  UNL7949     0.0000
   7997 C           9.8022   77.9301   30.2786 C.3   7950  UNL7950     0.0000
   7998 C          54.2367   33.1561   36.3732 C.3   7951  UNL7951     0.0000
   7999 C          12.4150   77.5906   74.7130 C.3   7952  UNL7952     0.0000
   8000 C          33.4956   74.7130    9.8022 C.3   7953  UNL7953     0.0000
   8001 C          77.9301   36.3732   56.8495 C.3   7954  UNL7954     0.0000
   8002 C          33.1561   30.2786   12.4150 C.3   7955  UNL7955     0.0000
   8003 C          77.5906   80.8077   54.2367 C.3   7956  UNL7956     0.0000
   8004 C          54.2367   36.3732   33.1561 C.3   7957  UNL7957     0.0000
   8005 C          12.4150   74.7130   77.5906 C.3   7958  UNL7958     0.0000
   8006 C          56.8495   80.8077   33.4956 C.3   7959  UNL7959     0.0000
   8007 C           9.8022   30.2786   77.9301 C.3   7960  UNL7960     0.0000
   8008 C          77.5906   54.2367   80.8077 C.3   7961  UNL7961     0.0000
   8009 C          33.1561   12.4150   30.2786 C.3   7962  UNL7962     0.0000
   8010 C          77.9301   56.8495   36.3732 C.3   7963  UNL7963     0.0000
   8011 C          33.4956    9.8022   74.7130 C.3   7964  UNL7964     0.0000
   8012 C          36.3732   77.5906    9.8022 C.3   7965  UNL7965     0.0000
   8013 C          74.7130   33.1561   56.8495 C.3   7966  UNL7966     0.0000
   8014 C          80.8077   77.9301   12.4150 C.3   7967  UNL7967     0.0000
   8015 C          30.2786   33.4956   54.2367 C.3   7968  UNL7968     0.0000
   8016 C          14.1559   76.4540   11.2784 C.3   7969  UNL7969     0.0000
   8017 C          52.4958   34.6322   55.7129 C.3   7970  UNL7970     0.0000
   8018 C          58.5904   79.0667   10.9389 C.3   7971  UNL7971     0.0000
   8019 C           8.0613   32.0195   55.3734 C.3   7972  UNL7972     0.0000
   8020 C          32.0195   10.9389   52.4958 C.3   7973  UNL7973     0.0000
   8021 C          79.0667   55.3734   14.1559 C.3   7974  UNL7974     0.0000
   8022 C          34.6322   11.2784    8.0613 C.3   7975  UNL7975     0.0000
   8023 C          76.4540   55.7129   58.5904 C.3   7976  UNL7976     0.0000
   8024 C          55.3734   58.5904   34.6322 C.3   7977  UNL7977     0.0000
   8025 C          10.9389    8.0613   76.4540 C.3   7978  UNL7978     0.0000
   8026 C          55.7129   14.1559   32.0195 C.3   7979  UNL7979     0.0000
   8027 C          11.2784   52.4958   79.0667 C.3   7980  UNL7980     0.0000
   8028 C          34.6322   52.4958   55.7129 C.3   7981  UNL7981     0.0000
   8029 C          76.4540   14.1559   11.2784 C.3   7982  UNL7982     0.0000
   8030 C          32.0195    8.0613   55.3734 C.3   7983  UNL7983     0.0000
   8031 C          79.0667   58.5904   10.9389 C.3   7984  UNL7984     0.0000
   8032 C          11.2784   34.6322    8.0613 C.3   7985  UNL7985     0.0000
   8033 C          55.7129   76.4540   58.5904 C.3   7986  UNL7986     0.0000
   8034 C          10.9389   32.0195   52.4958 C.3   7987  UNL7987     0.0000
   8035 C          55.3734   79.0667   14.1559 C.3   7988  UNL7988     0.0000
   8036 C          52.4958   11.2784   79.0667 C.3   7989  UNL7989     0.0000
   8037 C          14.1559   55.7129   32.0195 C.3   7990  UNL7990     0.0000
   8038 C           8.0613   10.9389   76.4540 C.3   7991  UNL7991     0.0000
   8039 C          58.5904   55.3734   34.6322 C.3   7992  UNL7992     0.0000
   8040 C          74.7130   12.4150   77.5906 C.3   7993  UNL7993     0.0000
   8041 C          36.3732   54.2367   33.1561 C.3   7994  UNL7994     0.0000
   8042 C          30.2786    9.8022   77.9301 C.3   7995  UNL7995     0.0000
   8043 C          80.8077   56.8495   33.4956 C.3   7996  UNL7996     0.0000
   8044 C          56.8495   77.9301   36.3732 C.3   7997  UNL7997     0.0000
   8045 C           9.8022   33.4956   74.7130 C.3   7998  UNL7998     0.0000
   8046 C          54.2367   77.5906   80.8077 C.3   7999  UNL7999     0.0000
   8047 C          12.4150   33.1561   30.2786 C.3   8000  UNL8000     0.0000
   8048 C          33.4956   30.2786   54.2367 C.3   8001  UNL8001     0.0000
   8049 C          77.9301   80.8077   12.4150 C.3   8002  UNL8002     0.0000
   8050 C          33.1561   74.7130   56.8495 C.3   8003  UNL8003     0.0000
   8051 C          77.5906   36.3732    9.8022 C.3   8004  UNL8004     0.0000
   8052 C          57.0814   28.9615   78.1603 C.3   8005  UNL8005     0.0000
   8053 C          12.6469   37.6902   32.9260 C.3   8006  UNL8006     0.0000
   8054 C          54.0048   73.3960   77.3605 C.3   8007  UNL8007     0.0000
   8055 C          33.7258    9.5703   82.1247 C.3   8008  UNL8008     0.0000
   8056 C          78.1603   57.0814   28.9615 C.3   8009  UNL8009     0.0000
   8057 C          32.9260   12.6469   37.6902 C.3   8010  UNL8010     0.0000
   8058 C          77.3605   54.0048   73.3960 C.3   8011  UNL8011     0.0000
   8059 C          82.1247   33.7258    9.5703 C.3   8012  UNL8012     0.0000
   8060 C          28.9615   78.1603   57.0814 C.3   8013  UNL8013     0.0000
   8061 C          37.6902   32.9260   12.6469 C.3   8014  UNL8014     0.0000
   8062 C          73.3960   77.3605   54.0048 C.3   8015  UNL8015     0.0000
   8063 C          59.9075   31.7875   10.7087 C.3   8016  UNL8016     0.0000
   8064 C           6.7443   79.2987   55.1432 C.3   8017  UNL8017     0.0000
   8065 C          15.4730   34.8642   11.5085 C.3   8018  UNL8018     0.0000
   8066 C          51.1788   76.2220   55.9430 C.3   8019  UNL8019     0.0000
   8067 C          76.2220   55.9430   51.1788 C.3   8020  UNL8020     0.0000
   8068 C          34.8642   11.5085   15.4730 C.3   8021  UNL8021     0.0000
   8069 C          79.2987   55.1432    6.7443 C.3   8022  UNL8022     0.0000
   8070 C          31.7875   10.7087   59.9075 C.3   8023  UNL8023     0.0000
   8071 C          11.5085   15.4730   34.8642 C.3   8024  UNL8024     0.0000
   8072 C          55.9430   51.1788   76.2220 C.3   8025  UNL8025     0.0000
   8073 C          10.7087   59.9075   31.7875 C.3   8026  UNL8026     0.0000
   8074 C          55.1432    6.7443   79.2987 C.3   8027  UNL8027     0.0000
   8075 C          79.2987    6.7443   55.1432 C.3   8028  UNL8028     0.0000
   8076 C          31.7875   59.9075   10.7087 C.3   8029  UNL8029     0.0000
   8077 C          76.2220   51.1788   55.9430 C.3   8030  UNL8030     0.0000
   8078 C          34.8642   15.4730   11.5085 C.3   8031  UNL8031     0.0000
   8079 C          55.1432   79.2987    6.7443 C.3   8032  UNL8032     0.0000
   8080 C          10.7087   31.7875   59.9075 C.3   8033  UNL8033     0.0000
   8081 C          55.9430   76.2220   51.1788 C.3   8034  UNL8034     0.0000
   8082 C          11.5085   34.8642   15.4730 C.3   8035  UNL8035     0.0000
   8083 C           6.7443   55.1432   79.2987 C.3   8036  UNL8036     0.0000
   8084 C          59.9075   10.7087   31.7875 C.3   8037  UNL8037     0.0000
   8085 C          51.1788   55.9430   76.2220 C.3   8038  UNL8038     0.0000
   8086 C          15.4730   11.5085   34.8642 C.3   8039  UNL8039     0.0000
   8087 C          28.9615   57.0814   78.1603 C.3   8040  UNL8040     0.0000
   8088 C          82.1247    9.5703   33.7258 C.3   8041  UNL8041     0.0000
   8089 C          73.3960   54.0048   77.3605 C.3   8042  UNL8042     0.0000
   8090 C          37.6902   12.6469   32.9260 C.3   8043  UNL8043     0.0000
   8091 C          12.6469   32.9260   37.6902 C.3   8044  UNL8044     0.0000
   8092 C          54.0048   77.3605   73.3960 C.3   8045  UNL8045     0.0000
   8093 C           9.5703   33.7258   82.1247 C.3   8046  UNL8046     0.0000
   8094 C          57.0814   78.1603   28.9615 C.3   8047  UNL8047     0.0000
   8095 C          77.3605   73.3960   54.0048 C.3   8048  UNL8048     0.0000
   8096 C          32.9260   37.6902   12.6469 C.3   8049  UNL8049     0.0000
   8097 C          78.1603   28.9615   57.0814 C.3   8050  UNL8050     0.0000
   8098 C          33.7258   82.1247    9.5703 C.3   8051  UNL8051     0.0000
   8099 C           9.5703   37.6902   78.1603 C.3   8052  UNL8052     0.0000
   8100 C          57.0814   73.3960   33.7258 C.3   8053  UNL8053     0.0000
   8101 C          12.6469   82.1247   77.3605 C.3   8054  UNL8054     0.0000
   8102 C          54.0048   28.9615   32.9260 C.3   8055  UNL8055     0.0000
   8103 C          33.7258   54.0048   37.6902 C.3   8056  UNL8056     0.0000
   8104 C          78.1603   12.6469   73.3960 C.3   8057  UNL8057     0.0000
   8105 C          32.9260   57.0814   82.1247 C.3   8058  UNL8058     0.0000
   8106 C          77.3605    9.5703   28.9615 C.3   8059  UNL8059     0.0000
   8107 C          82.1247   78.1603   54.0048 C.3   8060  UNL8060     0.0000
   8108 C          28.9615   33.7258   12.6469 C.3   8061  UNL8061     0.0000
   8109 C          37.6902   77.3605   57.0814 C.3   8062  UNL8062     0.0000
   8110 C          73.3960   32.9260    9.5703 C.3   8063  UNL8063     0.0000
   8111 C          59.9075   76.2220   55.1432 C.3   8064  UNL8064     0.0000
   8112 C           6.7443   34.8642   10.7087 C.3   8065  UNL8065     0.0000
   8113 C          15.4730   79.2987   55.9430 C.3   8066  UNL8066     0.0000
   8114 C          51.1788   31.7875   11.5085 C.3   8067  UNL8067     0.0000
   8115 C          76.2220   11.5085    6.7443 C.3   8068  UNL8068     0.0000
   8116 C          34.8642   55.9430   59.9075 C.3   8069  UNL8069     0.0000
   8117 C          79.2987   10.7087   51.1788 C.3   8070  UNL8070     0.0000
   8118 C          31.7875   55.1432   15.4730 C.3   8071  UNL8071     0.0000
   8119 C          11.5085   59.9075   79.2987 C.3   8072  UNL8072     0.0000
   8120 C          55.9430    6.7443   31.7875 C.3   8073  UNL8073     0.0000
   8121 C          10.7087   15.4730   76.2220 C.3   8074  UNL8074     0.0000
   8122 C          55.1432   51.1788   34.8642 C.3   8075  UNL8075     0.0000
   8123 C          79.2987   51.1788   10.7087 C.3   8076  UNL8076     0.0000
   8124 C          31.7875   15.4730   55.1432 C.3   8077  UNL8077     0.0000
   8125 C          76.2220    6.7443   11.5085 C.3   8078  UNL8078     0.0000
   8126 C          34.8642   59.9075   55.9430 C.3   8079  UNL8079     0.0000
   8127 C          55.1432   34.8642   51.1788 C.3   8080  UNL8080     0.0000
   8128 C          10.7087   76.2220   15.4730 C.3   8081  UNL8081     0.0000
   8129 C          55.9430   31.7875    6.7443 C.3   8082  UNL8082     0.0000
   8130 C          11.5085   79.2987   59.9075 C.3   8083  UNL8083     0.0000
   8131 C           6.7443   10.7087   34.8642 C.3   8084  UNL8084     0.0000
   8132 C          59.9075   55.1432   76.2220 C.3   8085  UNL8085     0.0000
   8133 C          51.1788   11.5085   31.7875 C.3   8086  UNL8086     0.0000
   8134 C          15.4730   55.9430   79.2987 C.3   8087  UNL8087     0.0000
   8135 C          28.9615   12.6469   33.7258 C.3   8088  UNL8088     0.0000
   8136 C          82.1247   54.0048   78.1603 C.3   8089  UNL8089     0.0000
   8137 C          73.3960    9.5703   32.9260 C.3   8090  UNL8090     0.0000
   8138 C          37.6902   57.0814   77.3605 C.3   8091  UNL8091     0.0000
   8139 C          12.6469   77.3605   82.1247 C.3   8092  UNL8092     0.0000
   8140 C          54.0048   32.9260   28.9615 C.3   8093  UNL8093     0.0000
   8141 C           9.5703   78.1603   37.6902 C.3   8094  UNL8094     0.0000
   8142 C          57.0814   33.7258   73.3960 C.3   8095  UNL8095     0.0000
   8143 C          77.3605   28.9615    9.5703 C.3   8096  UNL8096     0.0000
   8144 C          32.9260   82.1247   57.0814 C.3   8097  UNL8097     0.0000
   8145 C          78.1603   73.3960   12.6469 C.3   8098  UNL8098     0.0000
   8146 C          33.7258   37.6902   54.0048 C.3   8099  UNL8099     0.0000
   8147 C          54.0048   82.1247   78.1603 C.3   8100  UNL8100     0.0000
   8148 C          12.6469   28.9615   33.7258 C.3   8101  UNL8101     0.0000
   8149 C          57.0814   37.6902   77.3605 C.3   8102  UNL8102     0.0000
   8150 C           9.5703   73.3960   32.9260 C.3   8103  UNL8103     0.0000
   8151 C          78.1603    9.5703   37.6902 C.3   8104  UNL8104     0.0000
   8152 C          33.7258   57.0814   73.3960 C.3   8105  UNL8105     0.0000
   8153 C          77.3605   12.6469   82.1247 C.3   8106  UNL8106     0.0000
   8154 C          32.9260   54.0048   28.9615 C.3   8107  UNL8107     0.0000
   8155 C          37.6902   33.7258   54.0048 C.3   8108  UNL8108     0.0000
   8156 C          73.3960   78.1603   12.6469 C.3   8109  UNL8109     0.0000
   8157 C          82.1247   32.9260   57.0814 C.3   8110  UNL8110     0.0000
   8158 C          28.9615   77.3605    9.5703 C.3   8111  UNL8111     0.0000
   8159 C          15.4730   31.7875   55.1432 C.3   8112  UNL8112     0.0000
   8160 C          51.1788   79.2987   10.7087 C.3   8113  UNL8113     0.0000
   8161 C          59.9075   34.8642   55.9430 C.3   8114  UNL8114     0.0000
   8162 C           6.7443   76.2220   11.5085 C.3   8115  UNL8115     0.0000
   8163 C          31.7875   55.9430    6.7443 C.3   8116  UNL8116     0.0000
   8164 C          79.2987   11.5085   59.9075 C.3   8117  UNL8117     0.0000
   8165 C          34.8642   55.1432   51.1788 C.3   8118  UNL8118     0.0000
   8166 C          76.2220   10.7087   15.4730 C.3   8119  UNL8119     0.0000
   8167 C          55.9430   15.4730   79.2987 C.3   8120  UNL8120     0.0000
   8168 C          11.5085   51.1788   31.7875 C.3   8121  UNL8121     0.0000
   8169 C          55.1432   59.9075   76.2220 C.3   8122  UNL8122     0.0000
   8170 C          10.7087    6.7443   34.8642 C.3   8123  UNL8123     0.0000
   8171 C          34.8642    6.7443   10.7087 C.3   8124  UNL8124     0.0000
   8172 C          76.2220   59.9075   55.1432 C.3   8125  UNL8125     0.0000
   8173 C          31.7875   51.1788   11.5085 C.3   8126  UNL8126     0.0000
   8174 C          79.2987   15.4730   55.9430 C.3   8127  UNL8127     0.0000
   8175 C          10.7087   79.2987   51.1788 C.3   8128  UNL8128     0.0000
   8176 C          55.1432   31.7875   15.4730 C.3   8129  UNL8129     0.0000
   8177 C          11.5085   76.2220    6.7443 C.3   8130  UNL8130     0.0000
   8178 C          55.9430   34.8642   59.9075 C.3   8131  UNL8131     0.0000
   8179 C          51.1788   55.1432   34.8642 C.3   8132  UNL8132     0.0000
   8180 C          15.4730   10.7087   76.2220 C.3   8133  UNL8133     0.0000
   8181 C           6.7443   55.9430   31.7875 C.3   8134  UNL8134     0.0000
   8182 C          59.9075   11.5085   79.2987 C.3   8135  UNL8135     0.0000
   8183 C          73.3960   57.0814   33.7258 C.3   8136  UNL8136     0.0000
   8184 C          37.6902    9.5703   78.1603 C.3   8137  UNL8137     0.0000
   8185 C          28.9615   54.0048   32.9260 C.3   8138  UNL8138     0.0000
   8186 C          82.1247   12.6469   77.3605 C.3   8139  UNL8139     0.0000
   8187 C          57.0814   32.9260   82.1247 C.3   8140  UNL8140     0.0000
   8188 C           9.5703   77.3605   28.9615 C.3   8141  UNL8141     0.0000
   8189 C          54.0048   33.7258   37.6902 C.3   8142  UNL8142     0.0000
   8190 C          12.6469   78.1603   73.3960 C.3   8143  UNL8143     0.0000
   8191 C          32.9260   73.3960    9.5703 C.3   8144  UNL8144     0.0000
   8192 C          77.3605   37.6902   57.0814 C.3   8145  UNL8145     0.0000
   8193 C          33.7258   28.9615   12.6469 C.3   8146  UNL8146     0.0000
   8194 C          78.1603   82.1247   54.0048 C.3   8147  UNL8147     0.0000
   8195 C          54.0048   37.6902   33.7258 C.3   8148  UNL8148     0.0000
   8196 C          12.6469   73.3960   78.1603 C.3   8149  UNL8149     0.0000
   8197 C          57.0814   82.1247   32.9260 C.3   8150  UNL8150     0.0000
   8198 C           9.5703   28.9615   77.3605 C.3   8151  UNL8151     0.0000
   8199 C          78.1603   54.0048   82.1247 C.3   8152  UNL8152     0.0000
   8200 C          33.7258   12.6469   28.9615 C.3   8153  UNL8153     0.0000
   8201 C          77.3605   57.0814   37.6902 C.3   8154  UNL8154     0.0000
   8202 C          32.9260    9.5703   73.3960 C.3   8155  UNL8155     0.0000
   8203 C          37.6902   78.1603    9.5703 C.3   8156  UNL8156     0.0000
   8204 C          73.3960   33.7258   57.0814 C.3   8157  UNL8157     0.0000
   8205 C          82.1247   77.3605   12.6469 C.3   8158  UNL8158     0.0000
   8206 C          28.9615   32.9260   54.0048 C.3   8159  UNL8159     0.0000
   8207 C          15.4730   76.2220   10.7087 C.3   8160  UNL8160     0.0000
   8208 C          51.1788   34.8642   55.1432 C.3   8161  UNL8161     0.0000
   8209 C          59.9075   79.2987   11.5085 C.3   8162  UNL8162     0.0000
   8210 C           6.7443   31.7875   55.9430 C.3   8163  UNL8163     0.0000
   8211 C          31.7875   11.5085   51.1788 C.3   8164  UNL8164     0.0000
   8212 C          79.2987   55.9430   15.4730 C.3   8165  UNL8165     0.0000
   8213 C          34.8642   10.7087    6.7443 C.3   8166  UNL8166     0.0000
   8214 C          76.2220   55.1432   59.9075 C.3   8167  UNL8167     0.0000
   8215 C          55.9430   59.9075   34.8642 C.3   8168  UNL8168     0.0000
   8216 C          11.5085    6.7443   76.2220 C.3   8169  UNL8169     0.0000
   8217 C          55.1432   15.4730   31.7875 C.3   8170  UNL8170     0.0000
   8218 C          10.7087   51.1788   79.2987 C.3   8171  UNL8171     0.0000
   8219 C          34.8642   51.1788   55.1432 C.3   8172  UNL8172     0.0000
   8220 C          76.2220   15.4730   10.7087 C.3   8173  UNL8173     0.0000
   8221 C          31.7875    6.7443   55.9430 C.3   8174  UNL8174     0.0000
   8222 C          79.2987   59.9075   11.5085 C.3   8175  UNL8175     0.0000
   8223 C          10.7087   34.8642    6.7443 C.3   8176  UNL8176     0.0000
   8224 C          55.1432   76.2220   59.9075 C.3   8177  UNL8177     0.0000
   8225 C          11.5085   31.7875   51.1788 C.3   8178  UNL8178     0.0000
   8226 C          55.9430   79.2987   15.4730 C.3   8179  UNL8179     0.0000
   8227 C          51.1788   10.7087   79.2987 C.3   8180  UNL8180     0.0000
   8228 C          15.4730   55.1432   31.7875 C.3   8181  UNL8181     0.0000
   8229 C           6.7443   11.5085   76.2220 C.3   8182  UNL8182     0.0000
   8230 C          59.9075   55.9430   34.8642 C.3   8183  UNL8183     0.0000
   8231 C          73.3960   12.6469   78.1603 C.3   8184  UNL8184     0.0000
   8232 C          37.6902   54.0048   33.7258 C.3   8185  UNL8185     0.0000
   8233 C          28.9615    9.5703   77.3605 C.3   8186  UNL8186     0.0000
   8234 C          82.1247   57.0814   32.9260 C.3   8187  UNL8187     0.0000
   8235 C          57.0814   77.3605   37.6902 C.3   8188  UNL8188     0.0000
   8236 C           9.5703   32.9260   73.3960 C.3   8189  UNL8189     0.0000
   8237 C          54.0048   78.1603   82.1247 C.3   8190  UNL8190     0.0000
   8238 C          12.6469   33.7258   28.9615 C.3   8191  UNL8191     0.0000
   8239 C          32.9260   28.9615   54.0048 C.3   8192  UNL8192     0.0000
   8240 C          77.3605   82.1247   12.6469 C.3   8193  UNL8193     0.0000
   8241 C          33.7258   73.3960   57.0814 C.3   8194  UNL8194     0.0000
   8242 C          78.1603   37.6902    9.5703 C.3   8195  UNL8195     0.0000
   8243 C          56.6771   26.5150   77.9790 C.3   8196  UNL8196     0.0000
   8244 C          12.2426   40.1368   33.1073 C.3   8197  UNL8197     0.0000
   8245 C          54.4092   70.9494   77.5417 C.3   8198  UNL8198     0.0000
   8246 C          33.5445    9.9747   84.5713 C.3   8199  UNL8199     0.0000
   8247 C          77.9790   56.6771   26.5150 C.3   8200  UNL8200     0.0000
   8248 C          33.1073   12.2426   40.1368 C.3   8201  UNL8201     0.0000
   8249 C          77.5417   54.4092   70.9494 C.3   8202  UNL8202     0.0000
   8250 C          84.5713   33.5445    9.9747 C.3   8203  UNL8203     0.0000
   8251 C          26.5150   77.9790   56.6771 C.3   8204  UNL8204     0.0000
   8252 C          40.1368   33.1073   12.2426 C.3   8205  UNL8205     0.0000
   8253 C          70.9494   77.5417   54.4092 C.3   8206  UNL8206     0.0000
   8254 C          62.3540   32.1919   10.8900 C.3   8207  UNL8207     0.0000
   8255 C           4.2977   78.8943   55.3245 C.3   8208  UNL8208     0.0000
   8256 C          17.9195   34.4598   11.3272 C.3   8209  UNL8209     0.0000
   8257 C          48.7322   76.6264   55.7617 C.3   8210  UNL8210     0.0000
   8258 C          76.6264   55.7617   48.7322 C.3   8211  UNL8211     0.0000
   8259 C          34.4598   11.3272   17.9195 C.3   8212  UNL8212     0.0000
   8260 C          78.8943   55.3245    4.2977 C.3   8213  UNL8213     0.0000
   8261 C          32.1919   10.8900   62.3540 C.3   8214  UNL8214     0.0000
   8262 C          11.3272   17.9195   34.4598 C.3   8215  UNL8215     0.0000
   8263 C          55.7617   48.7322   76.6264 C.3   8216  UNL8216     0.0000
   8264 C          10.8900   62.3540   32.1919 C.3   8217  UNL8217     0.0000
   8265 C          55.3245    4.2977   78.8943 C.3   8218  UNL8218     0.0000
   8266 C          78.8943    4.2977   55.3245 C.3   8219  UNL8219     0.0000
   8267 C          32.1919   62.3540   10.8900 C.3   8220  UNL8220     0.0000
   8268 C          76.6264   48.7322   55.7617 C.3   8221  UNL8221     0.0000
   8269 C          34.4598   17.9195   11.3272 C.3   8222  UNL8222     0.0000
   8270 C          55.3245   78.8943    4.2977 C.3   8223  UNL8223     0.0000
   8271 C          10.8900   32.1919   62.3540 C.3   8224  UNL8224     0.0000
   8272 C          55.7617   76.6264   48.7322 C.3   8225  UNL8225     0.0000
   8273 C          11.3272   34.4598   17.9195 C.3   8226  UNL8226     0.0000
   8274 C           4.2977   55.3245   78.8943 C.3   8227  UNL8227     0.0000
   8275 C          62.3540   10.8900   32.1919 C.3   8228  UNL8228     0.0000
   8276 C          48.7322   55.7617   76.6264 C.3   8229  UNL8229     0.0000
   8277 C          17.9195   11.3272   34.4598 C.3   8230  UNL8230     0.0000
   8278 C          26.5150   56.6771   77.9790 C.3   8231  UNL8231     0.0000
   8279 C          84.5713    9.9747   33.5445 C.3   8232  UNL8232     0.0000
   8280 C          70.9494   54.4092   77.5417 C.3   8233  UNL8233     0.0000
   8281 C          40.1368   12.2426   33.1073 C.3   8234  UNL8234     0.0000
   8282 C          12.2426   33.1073   40.1368 C.3   8235  UNL8235     0.0000
   8283 C          54.4092   77.5417   70.9494 C.3   8236  UNL8236     0.0000
   8284 C           9.9747   33.5445   84.5713 C.3   8237  UNL8237     0.0000
   8285 C          56.6771   77.9790   26.5150 C.3   8238  UNL8238     0.0000
   8286 C          77.5417   70.9494   54.4092 C.3   8239  UNL8239     0.0000
   8287 C          33.1073   40.1368   12.2426 C.3   8240  UNL8240     0.0000
   8288 C          77.9790   26.5150   56.6771 C.3   8241  UNL8241     0.0000
   8289 C          33.5445   84.5713    9.9747 C.3   8242  UNL8242     0.0000
   8290 C           9.9747   40.1368   77.9790 C.3   8243  UNL8243     0.0000
   8291 C          56.6771   70.9494   33.5445 C.3   8244  UNL8244     0.0000
   8292 C          12.2426   84.5713   77.5417 C.3   8245  UNL8245     0.0000
   8293 C          54.4092   26.5150   33.1073 C.3   8246  UNL8246     0.0000
   8294 C          33.5445   54.4092   40.1368 C.3   8247  UNL8247     0.0000
   8295 C          77.9790   12.2426   70.9494 C.3   8248  UNL8248     0.0000
   8296 C          33.1073   56.6771   84.5713 C.3   8249  UNL8249     0.0000
   8297 C          77.5417    9.9747   26.5150 C.3   8250  UNL8250     0.0000
   8298 C          84.5713   77.9790   54.4092 C.3   8251  UNL8251     0.0000
   8299 C          26.5150   33.5445   12.2426 C.3   8252  UNL8252     0.0000
   8300 C          40.1368   77.5417   56.6771 C.3   8253  UNL8253     0.0000
   8301 C          70.9494   33.1073    9.9747 C.3   8254  UNL8254     0.0000
   8302 C          62.3540   76.6264   55.3245 C.3   8255  UNL8255     0.0000
   8303 C           4.2977   34.4598   10.8900 C.3   8256  UNL8256     0.0000
   8304 C          17.9195   78.8943   55.7617 C.3   8257  UNL8257     0.0000
   8305 C          48.7322   32.1919   11.3272 C.3   8258  UNL8258     0.0000
   8306 C          76.6264   11.3272    4.2977 C.3   8259  UNL8259     0.0000
   8307 C          34.4598   55.7617   62.3540 C.3   8260  UNL8260     0.0000
   8308 C          78.8943   10.8900   48.7322 C.3   8261  UNL8261     0.0000
   8309 C          32.1919   55.3245   17.9195 C.3   8262  UNL8262     0.0000
   8310 C          11.3272   62.3540   78.8943 C.3   8263  UNL8263     0.0000
   8311 C          55.7617    4.2977   32.1919 C.3   8264  UNL8264     0.0000
   8312 C          10.8900   17.9195   76.6264 C.3   8265  UNL8265     0.0000
   8313 C          55.3245   48.7322   34.4598 C.3   8266  UNL8266     0.0000
   8314 C          78.8943   48.7322   10.8900 C.3   8267  UNL8267     0.0000
   8315 C          32.1919   17.9195   55.3245 C.3   8268  UNL8268     0.0000
   8316 C          76.6264    4.2977   11.3272 C.3   8269  UNL8269     0.0000
   8317 C          34.4598   62.3540   55.7617 C.3   8270  UNL8270     0.0000
   8318 C          55.3245   34.4598   48.7322 C.3   8271  UNL8271     0.0000
   8319 C          10.8900   76.6264   17.9195 C.3   8272  UNL8272     0.0000
   8320 C          55.7617   32.1919    4.2977 C.3   8273  UNL8273     0.0000
   8321 C          11.3272   78.8943   62.3540 C.3   8274  UNL8274     0.0000
   8322 C           4.2977   10.8900   34.4598 C.3   8275  UNL8275     0.0000
   8323 C          62.3540   55.3245   76.6264 C.3   8276  UNL8276     0.0000
   8324 C          48.7322   11.3272   32.1919 C.3   8277  UNL8277     0.0000
   8325 C          17.9195   55.7617   78.8943 C.3   8278  UNL8278     0.0000
   8326 C          26.5150   12.2426   33.5445 C.3   8279  UNL8279     0.0000
   8327 C          84.5713   54.4092   77.9790 C.3   8280  UNL8280     0.0000
   8328 C          70.9494    9.9747   33.1073 C.3   8281  UNL8281     0.0000
   8329 C          40.1368   56.6771   77.5417 C.3   8282  UNL8282     0.0000
   8330 C          12.2426   77.5417   84.5713 C.3   8283  UNL8283     0.0000
   8331 C          54.4092   33.1073   26.5150 C.3   8284  UNL8284     0.0000
   8332 C           9.9747   77.9790   40.1368 C.3   8285  UNL8285     0.0000
   8333 C          56.6771   33.5445   70.9494 C.3   8286  UNL8286     0.0000
   8334 C          77.5417   26.5150    9.9747 C.3   8287  UNL8287     0.0000
   8335 C          33.1073   84.5713   56.6771 C.3   8288  UNL8288     0.0000
   8336 C          77.9790   70.9494   12.2426 C.3   8289  UNL8289     0.0000
   8337 C          33.5445   40.1368   54.4092 C.3   8290  UNL8290     0.0000
   8338 C          54.4092   84.5713   77.9790 C.3   8291  UNL8291     0.0000
   8339 C          12.2426   26.5150   33.5445 C.3   8292  UNL8292     0.0000
   8340 C          56.6771   40.1368   77.5417 C.3   8293  UNL8293     0.0000
   8341 C           9.9747   70.9494   33.1073 C.3   8294  UNL8294     0.0000
   8342 C          77.9790    9.9747   40.1368 C.3   8295  UNL8295     0.0000
   8343 C          33.5445   56.6771   70.9494 C.3   8296  UNL8296     0.0000
   8344 C          77.5417   12.2426   84.5713 C.3   8297  UNL8297     0.0000
   8345 C          33.1073   54.4092   26.5150 C.3   8298  UNL8298     0.0000
   8346 C          40.1368   33.5445   54.4092 C.3   8299  UNL8299     0.0000
   8347 C          70.9494   77.9790   12.2426 C.3   8300  UNL8300     0.0000
   8348 C          84.5713   33.1073   56.6771 C.3   8301  UNL8301     0.0000
   8349 C          26.5150   77.5417    9.9747 C.3   8302  UNL8302     0.0000
   8350 C          17.9195   32.1919   55.3245 C.3   8303  UNL8303     0.0000
   8351 C          48.7322   78.8943   10.8900 C.3   8304  UNL8304     0.0000
   8352 C          62.3540   34.4598   55.7617 C.3   8305  UNL8305     0.0000
   8353 C           4.2977   76.6264   11.3272 C.3   8306  UNL8306     0.0000
   8354 C          32.1919   55.7617    4.2977 C.3   8307  UNL8307     0.0000
   8355 C          78.8943   11.3272   62.3540 C.3   8308  UNL8308     0.0000
   8356 C          34.4598   55.3245   48.7322 C.3   8309  UNL8309     0.0000
   8357 C          76.6264   10.8900   17.9195 C.3   8310  UNL8310     0.0000
   8358 C          55.7617   17.9195   78.8943 C.3   8311  UNL8311     0.0000
   8359 C          11.3272   48.7322   32.1919 C.3   8312  UNL8312     0.0000
   8360 C          55.3245   62.3540   76.6264 C.3   8313  UNL8313     0.0000
   8361 C          10.8900    4.2977   34.4598 C.3   8314  UNL8314     0.0000
   8362 C          34.4598    4.2977   10.8900 C.3   8315  UNL8315     0.0000
   8363 C          76.6264   62.3540   55.3245 C.3   8316  UNL8316     0.0000
   8364 C          32.1919   48.7322   11.3272 C.3   8317  UNL8317     0.0000
   8365 C          78.8943   17.9195   55.7617 C.3   8318  UNL8318     0.0000
   8366 C          10.8900   78.8943   48.7322 C.3   8319  UNL8319     0.0000
   8367 C          55.3245   32.1919   17.9195 C.3   8320  UNL8320     0.0000
   8368 C          11.3272   76.6264    4.2977 C.3   8321  UNL8321     0.0000
   8369 C          55.7617   34.4598   62.3540 C.3   8322  UNL8322     0.0000
   8370 C          48.7322   55.3245   34.4598 C.3   8323  UNL8323     0.0000
   8371 C          17.9195   10.8900   76.6264 C.3   8324  UNL8324     0.0000
   8372 C           4.2977   55.7617   32.1919 C.3   8325  UNL8325     0.0000
   8373 C          62.3540   11.3272   78.8943 C.3   8326  UNL8326     0.0000
   8374 C          70.9494   56.6771   33.5445 C.3   8327  UNL8327     0.0000
   8375 C          40.1368    9.9747   77.9790 C.3   8328  UNL8328     0.0000
   8376 C          26.5150   54.4092   33.1073 C.3   8329  UNL8329     0.0000
   8377 C          84.5713   12.2426   77.5417 C.3   8330  UNL8330     0.0000
   8378 C          56.6771   33.1073   84.5713 C.3   8331  UNL8331     0.0000
   8379 C           9.9747   77.5417   26.5150 C.3   8332  UNL8332     0.0000
   8380 C          54.4092   33.5445   40.1368 C.3   8333  UNL8333     0.0000
   8381 C          12.2426   77.9790   70.9494 C.3   8334  UNL8334     0.0000
   8382 C          33.1073   70.9494    9.9747 C.3   8335  UNL8335     0.0000
   8383 C          77.5417   40.1368   56.6771 C.3   8336  UNL8336     0.0000
   8384 C          33.5445   26.5150   12.2426 C.3   8337  UNL8337     0.0000
   8385 C          77.9790   84.5713   54.4092 C.3   8338  UNL8338     0.0000
   8386 C          54.4092   40.1368   33.5445 C.3   8339  UNL8339     0.0000
   8387 C          12.2426   70.9494   77.9790 C.3   8340  UNL8340     0.0000
   8388 C          56.6771   84.5713   33.1073 C.3   8341  UNL8341     0.0000
   8389 C           9.9747   26.5150   77.5417 C.3   8342  UNL8342     0.0000
   8390 C          77.9790   54.4092   84.5713 C.3   8343  UNL8343     0.0000
   8391 C          33.5445   12.2426   26.5150 C.3   8344  UNL8344     0.0000
   8392 C          77.5417   56.6771   40.1368 C.3   8345  UNL8345     0.0000
   8393 C          33.1073    9.9747   70.9494 C.3   8346  UNL8346     0.0000
   8394 C          40.1368   77.9790    9.9747 C.3   8347  UNL8347     0.0000
   8395 C          70.9494   33.5445   56.6771 C.3   8348  UNL8348     0.0000
   8396 C          84.5713   77.5417   12.2426 C.3   8349  UNL8349     0.0000
   8397 C          26.5150   33.1073   54.4092 C.3   8350  UNL8350     0.0000
   8398 C          17.9195   76.6264   10.8900 C.3   8351  UNL8351     0.0000
   8399 C          48.7322   34.4598   55.3245 C.3   8352  UNL8352     0.0000
   8400 C          62.3540   78.8943   11.3272 C.3   8353  UNL8353     0.0000
   8401 C           4.2977   32.1919   55.7617 C.3   8354  UNL8354     0.0000
   8402 C          32.1919   11.3272   48.7322 C.3   8355  UNL8355     0.0000
   8403 C          78.8943   55.7617   17.9195 C.3   8356  UNL8356     0.0000
   8404 C          34.4598   10.8900    4.2977 C.3   8357  UNL8357     0.0000
   8405 C          76.6264   55.3245   62.3540 C.3   8358  UNL8358     0.0000
   8406 C          55.7617   62.3540   34.4598 C.3   8359  UNL8359     0.0000
   8407 C          11.3272    4.2977   76.6264 C.3   8360  UNL8360     0.0000
   8408 C          55.3245   17.9195   32.1919 C.3   8361  UNL8361     0.0000
   8409 C          10.8900   48.7322   78.8943 C.3   8362  UNL8362     0.0000
   8410 C          34.4598   48.7322   55.3245 C.3   8363  UNL8363     0.0000
   8411 C          76.6264   17.9195   10.8900 C.3   8364  UNL8364     0.0000
   8412 C          32.1919    4.2977   55.7617 C.3   8365  UNL8365     0.0000
   8413 C          78.8943   62.3540   11.3272 C.3   8366  UNL8366     0.0000
   8414 C          10.8900   34.4598    4.2977 C.3   8367  UNL8367     0.0000
   8415 C          55.3245   76.6264   62.3540 C.3   8368  UNL8368     0.0000
   8416 C          11.3272   32.1919   48.7322 C.3   8369  UNL8369     0.0000
   8417 C          55.7617   78.8943   17.9195 C.3   8370  UNL8370     0.0000
   8418 C          48.7322   10.8900   78.8943 C.3   8371  UNL8371     0.0000
   8419 C          17.9195   55.3245   32.1919 C.3   8372  UNL8372     0.0000
   8420 C           4.2977   11.3272   76.6264 C.3   8373  UNL8373     0.0000
   8421 C          62.3540   55.7617   34.4598 C.3   8374  UNL8374     0.0000
   8422 C          70.9494   12.2426   77.9790 C.3   8375  UNL8375     0.0000
   8423 C          40.1368   54.4092   33.5445 C.3   8376  UNL8376     0.0000
   8424 C          26.5150    9.9747   77.5417 C.3   8377  UNL8377     0.0000
   8425 C          84.5713   56.6771   33.1073 C.3   8378  UNL8378     0.0000
   8426 C          56.6771   77.5417   40.1368 C.3   8379  UNL8379     0.0000
   8427 C           9.9747   33.1073   70.9494 C.3   8380  UNL8380     0.0000
   8428 C          54.4092   77.9790   84.5713 C.3   8381  UNL8381     0.0000
   8429 C          12.2426   33.5445   26.5150 C.3   8382  UNL8382     0.0000
   8430 C          33.1073   26.5150   54.4092 C.3   8383  UNL8383     0.0000
   8431 C          77.5417   84.5713   12.2426 C.3   8384  UNL8384     0.0000
   8432 C          33.5445   70.9494   56.6771 C.3   8385  UNL8385     0.0000
   8433 C          77.9790   40.1368    9.9747 C.3   8386  UNL8386     0.0000
   8434 C          56.3589   27.8604   77.5924 C.3   8387  UNL8387     0.0000
   8435 C          11.9244   38.7913   33.4938 C.3   8388  UNL8388     0.0000
   8436 C          54.7273   72.2949   77.9283 C.3   8389  UNL8389     0.0000
   8437 C          33.1579   10.2928   83.2258 C.3   8390  UNL8390     0.0000
   8438 C          77.5924   56.3589   27.8604 C.3   8391  UNL8391     0.0000
   8439 C          33.4938   11.9244   38.7913 C.3   8392  UNL8392     0.0000
   8440 C          77.9283   54.7273   72.2949 C.3   8393  UNL8393     0.0000
   8441 C          83.2258   33.1579   10.2928 C.3   8394  UNL8394     0.0000
   8442 C          27.8604   77.5924   56.3589 C.3   8395  UNL8395     0.0000
   8443 C          38.7913   33.4938   11.9244 C.3   8396  UNL8396     0.0000
   8444 C          72.2949   77.9283   54.7273 C.3   8397  UNL8397     0.0000
   8445 C          61.0086   32.5101   11.2766 C.3   8398  UNL8398     0.0000
   8446 C           5.6432   78.5762   55.7111 C.3   8399  UNL8399     0.0000
   8447 C          16.5741   34.1417   10.9407 C.3   8400  UNL8400     0.0000
   8448 C          50.0777   76.9445   55.3752 C.3   8401  UNL8401     0.0000
   8449 C          76.9445   55.3752   50.0777 C.3   8402  UNL8402     0.0000
   8450 C          34.1417   10.9407   16.5741 C.3   8403  UNL8403     0.0000
   8451 C          78.5762   55.7111    5.6432 C.3   8404  UNL8404     0.0000
   8452 C          32.5101   11.2766   61.0086 C.3   8405  UNL8405     0.0000
   8453 C          10.9407   16.5741   34.1417 C.3   8406  UNL8406     0.0000
   8454 C          55.3752   50.0777   76.9445 C.3   8407  UNL8407     0.0000
   8455 C          11.2766   61.0086   32.5101 C.3   8408  UNL8408     0.0000
   8456 C          55.7111    5.6432   78.5762 C.3   8409  UNL8409     0.0000
   8457 C          78.5762    5.6432   55.7111 C.3   8410  UNL8410     0.0000
   8458 C          32.5101   61.0086   11.2766 C.3   8411  UNL8411     0.0000
   8459 C          76.9445   50.0777   55.3752 C.3   8412  UNL8412     0.0000
   8460 C          34.1417   16.5741   10.9407 C.3   8413  UNL8413     0.0000
   8461 C          55.7111   78.5762    5.6432 C.3   8414  UNL8414     0.0000
   8462 C          11.2766   32.5101   61.0086 C.3   8415  UNL8415     0.0000
   8463 C          55.3752   76.9445   50.0777 C.3   8416  UNL8416     0.0000
   8464 C          10.9407   34.1417   16.5741 C.3   8417  UNL8417     0.0000
   8465 C           5.6432   55.7111   78.5762 C.3   8418  UNL8418     0.0000
   8466 C          61.0086   11.2766   32.5101 C.3   8419  UNL8419     0.0000
   8467 C          50.0777   55.3752   76.9445 C.3   8420  UNL8420     0.0000
   8468 C          16.5741   10.9407   34.1417 C.3   8421  UNL8421     0.0000
   8469 C          27.8604   56.3589   77.5924 C.3   8422  UNL8422     0.0000
   8470 C          83.2258   10.2928   33.1579 C.3   8423  UNL8423     0.0000
   8471 C          72.2949   54.7273   77.9283 C.3   8424  UNL8424     0.0000
   8472 C          38.7913   11.9244   33.4938 C.3   8425  UNL8425     0.0000
   8473 C          11.9244   33.4938   38.7913 C.3   8426  UNL8426     0.0000
   8474 C          54.7273   77.9283   72.2949 C.3   8427  UNL8427     0.0000
   8475 C          10.2928   33.1579   83.2258 C.3   8428  UNL8428     0.0000
   8476 C          56.3589   77.5924   27.8604 C.3   8429  UNL8429     0.0000
   8477 C          77.9283   72.2949   54.7273 C.3   8430  UNL8430     0.0000
   8478 C          33.4938   38.7913   11.9244 C.3   8431  UNL8431     0.0000
   8479 C          77.5924   27.8604   56.3589 C.3   8432  UNL8432     0.0000
   8480 C          33.1579   83.2258   10.2928 C.3   8433  UNL8433     0.0000
   8481 C          10.2928   38.7913   77.5924 C.3   8434  UNL8434     0.0000
   8482 C          56.3589   72.2949   33.1579 C.3   8435  UNL8435     0.0000
   8483 C          11.9244   83.2258   77.9283 C.3   8436  UNL8436     0.0000
   8484 C          54.7273   27.8604   33.4938 C.3   8437  UNL8437     0.0000
   8485 C          33.1579   54.7273   38.7913 C.3   8438  UNL8438     0.0000
   8486 C          77.5924   11.9244   72.2949 C.3   8439  UNL8439     0.0000
   8487 C          33.4938   56.3589   83.2258 C.3   8440  UNL8440     0.0000
   8488 C          77.9283   10.2928   27.8604 C.3   8441  UNL8441     0.0000
   8489 C          83.2258   77.5924   54.7273 C.3   8442  UNL8442     0.0000
   8490 C          27.8604   33.1579   11.9244 C.3   8443  UNL8443     0.0000
   8491 C          38.7913   77.9283   56.3589 C.3   8444  UNL8444     0.0000
   8492 C          72.2949   33.4938   10.2928 C.3   8445  UNL8445     0.0000
   8493 C          61.0086   76.9445   55.7111 C.3   8446  UNL8446     0.0000
   8494 C           5.6432   34.1417   11.2766 C.3   8447  UNL8447     0.0000
   8495 C          16.5741   78.5762   55.3752 C.3   8448  UNL8448     0.0000
   8496 C          50.0777   32.5101   10.9407 C.3   8449  UNL8449     0.0000
   8497 C          76.9445   10.9407    5.6432 C.3   8450  UNL8450     0.0000
   8498 C          34.1417   55.3752   61.0086 C.3   8451  UNL8451     0.0000
   8499 C          78.5762   11.2766   50.0777 C.3   8452  UNL8452     0.0000
   8500 C          32.5101   55.7111   16.5741 C.3   8453  UNL8453     0.0000
   8501 C          10.9407   61.0086   78.5762 C.3   8454  UNL8454     0.0000
   8502 C          55.3752    5.6432   32.5101 C.3   8455  UNL8455     0.0000
   8503 C          11.2766   16.5741   76.9445 C.3   8456  UNL8456     0.0000
   8504 C          55.7111   50.0777   34.1417 C.3   8457  UNL8457     0.0000
   8505 C          78.5762   50.0777   11.2766 C.3   8458  UNL8458     0.0000
   8506 C          32.5101   16.5741   55.7111 C.3   8459  UNL8459     0.0000
   8507 C          76.9445    5.6432   10.9407 C.3   8460  UNL8460     0.0000
   8508 C          34.1417   61.0086   55.3752 C.3   8461  UNL8461     0.0000
   8509 C          55.7111   34.1417   50.0777 C.3   8462  UNL8462     0.0000
   8510 C          11.2766   76.9445   16.5741 C.3   8463  UNL8463     0.0000
   8511 C          55.3752   32.5101    5.6432 C.3   8464  UNL8464     0.0000
   8512 C          10.9407   78.5762   61.0086 C.3   8465  UNL8465     0.0000
   8513 C           5.6432   11.2766   34.1417 C.3   8466  UNL8466     0.0000
   8514 C          61.0086   55.7111   76.9445 C.3   8467  UNL8467     0.0000
   8515 C          50.0777   10.9407   32.5101 C.3   8468  UNL8468     0.0000
   8516 C          16.5741   55.3752   78.5762 C.3   8469  UNL8469     0.0000
   8517 C          27.8604   11.9244   33.1579 C.3   8470  UNL8470     0.0000
   8518 C          83.2258   54.7273   77.5924 C.3   8471  UNL8471     0.0000
   8519 C          72.2949   10.2928   33.4938 C.3   8472  UNL8472     0.0000
   8520 C          38.7913   56.3589   77.9283 C.3   8473  UNL8473     0.0000
   8521 C          11.9244   77.9283   83.2258 C.3   8474  UNL8474     0.0000
   8522 C          54.7273   33.4938   27.8604 C.3   8475  UNL8475     0.0000
   8523 C          10.2928   77.5924   38.7913 C.3   8476  UNL8476     0.0000
   8524 C          56.3589   33.1579   72.2949 C.3   8477  UNL8477     0.0000
   8525 C          77.9283   27.8604   10.2928 C.3   8478  UNL8478     0.0000
   8526 C          33.4938   83.2258   56.3589 C.3   8479  UNL8479     0.0000
   8527 C          77.5924   72.2949   11.9244 C.3   8480  UNL8480     0.0000
   8528 C          33.1579   38.7913   54.7273 C.3   8481  UNL8481     0.0000
   8529 C          54.7273   83.2258   77.5924 C.3   8482  UNL8482     0.0000
   8530 C          11.9244   27.8604   33.1579 C.3   8483  UNL8483     0.0000
   8531 C          56.3589   38.7913   77.9283 C.3   8484  UNL8484     0.0000
   8532 C          10.2928   72.2949   33.4938 C.3   8485  UNL8485     0.0000
   8533 C          77.5924   10.2928   38.7913 C.3   8486  UNL8486     0.0000
   8534 C          33.1579   56.3589   72.2949 C.3   8487  UNL8487     0.0000
   8535 C          77.9283   11.9244   83.2258 C.3   8488  UNL8488     0.0000
   8536 C          33.4938   54.7273   27.8604 C.3   8489  UNL8489     0.0000
   8537 C          38.7913   33.1579   54.7273 C.3   8490  UNL8490     0.0000
   8538 C          72.2949   77.5924   11.9244 C.3   8491  UNL8491     0.0000
   8539 C          83.2258   33.4938   56.3589 C.3   8492  UNL8492     0.0000
   8540 C          27.8604   77.9283   10.2928 C.3   8493  UNL8493     0.0000
   8541 C          16.5741   32.5101   55.7111 C.3   8494  UNL8494     0.0000
   8542 C          50.0777   78.5762   11.2766 C.3   8495  UNL8495     0.0000
   8543 C          61.0086   34.1417   55.3752 C.3   8496  UNL8496     0.0000
   8544 C           5.6432   76.9445   10.9407 C.3   8497  UNL8497     0.0000
   8545 C          32.5101   55.3752    5.6432 C.3   8498  UNL8498     0.0000
   8546 C          78.5762   10.9407   61.0086 C.3   8499  UNL8499     0.0000
   8547 C          34.1417   55.7111   50.0777 C.3   8500  UNL8500     0.0000
   8548 C          76.9445   11.2766   16.5741 C.3   8501  UNL8501     0.0000
   8549 C          55.3752   16.5741   78.5762 C.3   8502  UNL8502     0.0000
   8550 C          10.9407   50.0777   32.5101 C.3   8503  UNL8503     0.0000
   8551 C          55.7111   61.0086   76.9445 C.3   8504  UNL8504     0.0000
   8552 C          11.2766    5.6432   34.1417 C.3   8505  UNL8505     0.0000
   8553 C          34.1417    5.6432   11.2766 C.3   8506  UNL8506     0.0000
   8554 C          76.9445   61.0086   55.7111 C.3   8507  UNL8507     0.0000
   8555 C          32.5101   50.0777   10.9407 C.3   8508  UNL8508     0.0000
   8556 C          78.5762   16.5741   55.3752 C.3   8509  UNL8509     0.0000
   8557 C          11.2766   78.5762   50.0777 C.3   8510  UNL8510     0.0000
   8558 C          55.7111   32.5101   16.5741 C.3   8511  UNL8511     0.0000
   8559 C          10.9407   76.9445    5.6432 C.3   8512  UNL8512     0.0000
   8560 C          55.3752   34.1417   61.0086 C.3   8513  UNL8513     0.0000
   8561 C          50.0777   55.7111   34.1417 C.3   8514  UNL8514     0.0000
   8562 C          16.5741   11.2766   76.9445 C.3   8515  UNL8515     0.0000
   8563 C           5.6432   55.3752   32.5101 C.3   8516  UNL8516     0.0000
   8564 C          61.0086   10.9407   78.5762 C.3   8517  UNL8517     0.0000
   8565 C          72.2949   56.3589   33.1579 C.3   8518  UNL8518     0.0000
   8566 C          38.7913   10.2928   77.5924 C.3   8519  UNL8519     0.0000
   8567 C          27.8604   54.7273   33.4938 C.3   8520  UNL8520     0.0000
   8568 C          83.2258   11.9244   77.9283 C.3   8521  UNL8521     0.0000
   8569 C          56.3589   33.4938   83.2258 C.3   8522  UNL8522     0.0000
   8570 C          10.2928   77.9283   27.8604 C.3   8523  UNL8523     0.0000
   8571 C          54.7273   33.1579   38.7913 C.3   8524  UNL8524     0.0000
   8572 C          11.9244   77.5924   72.2949 C.3   8525  UNL8525     0.0000
   8573 C          33.4938   72.2949   10.2928 C.3   8526  UNL8526     0.0000
   8574 C          77.9283   38.7913   56.3589 C.3   8527  UNL8527     0.0000
   8575 C          33.1579   27.8604   11.9244 C.3   8528  UNL8528     0.0000
   8576 C          77.5924   83.2258   54.7273 C.3   8529  UNL8529     0.0000
   8577 C          54.7273   38.7913   33.1579 C.3   8530  UNL8530     0.0000
   8578 C          11.9244   72.2949   77.5924 C.3   8531  UNL8531     0.0000
   8579 C          56.3589   83.2258   33.4938 C.3   8532  UNL8532     0.0000
   8580 C          10.2928   27.8604   77.9283 C.3   8533  UNL8533     0.0000
   8581 C          77.5924   54.7273   83.2258 C.3   8534  UNL8534     0.0000
   8582 C          33.1579   11.9244   27.8604 C.3   8535  UNL8535     0.0000
   8583 C          77.9283   56.3589   38.7913 C.3   8536  UNL8536     0.0000
   8584 C          33.4938   10.2928   72.2949 C.3   8537  UNL8537     0.0000
   8585 C          38.7913   77.5924   10.2928 C.3   8538  UNL8538     0.0000
   8586 C          72.2949   33.1579   56.3589 C.3   8539  UNL8539     0.0000
   8587 C          83.2258   77.9283   11.9244 C.3   8540  UNL8540     0.0000
   8588 C          27.8604   33.4938   54.7273 C.3   8541  UNL8541     0.0000
   8589 C          16.5741   76.9445   11.2766 C.3   8542  UNL8542     0.0000
   8590 C          50.0777   34.1417   55.7111 C.3   8543  UNL8543     0.0000
   8591 C          61.0086   78.5762   10.9407 C.3   8544  UNL8544     0.0000
   8592 C           5.6432   32.5101   55.3752 C.3   8545  UNL8545     0.0000
   8593 C          32.5101   10.9407   50.0777 C.3   8546  UNL8546     0.0000
   8594 C          78.5762   55.3752   16.5741 C.3   8547  UNL8547     0.0000
   8595 C          34.1417   11.2766    5.6432 C.3   8548  UNL8548     0.0000
   8596 C          76.9445   55.7111   61.0086 C.3   8549  UNL8549     0.0000
   8597 C          55.3752   61.0086   34.1417 C.3   8550  UNL8550     0.0000
   8598 C          10.9407    5.6432   76.9445 C.3   8551  UNL8551     0.0000
   8599 C          55.7111   16.5741   32.5101 C.3   8552  UNL8552     0.0000
   8600 C          11.2766   50.0777   78.5762 C.3   8553  UNL8553     0.0000
   8601 C          34.1417   50.0777   55.7111 C.3   8554  UNL8554     0.0000
   8602 C          76.9445   16.5741   11.2766 C.3   8555  UNL8555     0.0000
   8603 C          32.5101    5.6432   55.3752 C.3   8556  UNL8556     0.0000
   8604 C          78.5762   61.0086   10.9407 C.3   8557  UNL8557     0.0000
   8605 C          11.2766   34.1417    5.6432 C.3   8558  UNL8558     0.0000
   8606 C          55.7111   76.9445   61.0086 C.3   8559  UNL8559     0.0000
   8607 C          10.9407   32.5101   50.0777 C.3   8560  UNL8560     0.0000
   8608 C          55.3752   78.5762   16.5741 C.3   8561  UNL8561     0.0000
   8609 C          50.0777   11.2766   78.5762 C.3   8562  UNL8562     0.0000
   8610 C          16.5741   55.7111   32.5101 C.3   8563  UNL8563     0.0000
   8611 C           5.6432   10.9407   76.9445 C.3   8564  UNL8564     0.0000
   8612 C          61.0086   55.3752   34.1417 C.3   8565  UNL8565     0.0000
   8613 C          72.2949   11.9244   77.5924 C.3   8566  UNL8566     0.0000
   8614 C          38.7913   54.7273   33.1579 C.3   8567  UNL8567     0.0000
   8615 C          27.8604   10.2928   77.9283 C.3   8568  UNL8568     0.0000
   8616 C          83.2258   56.3589   33.4938 C.3   8569  UNL8569     0.0000
   8617 C          56.3589   77.9283   38.7913 C.3   8570  UNL8570     0.0000
   8618 C          10.2928   33.4938   72.2949 C.3   8571  UNL8571     0.0000
   8619 C          54.7273   77.5924   83.2258 C.3   8572  UNL8572     0.0000
   8620 C          11.9244   33.1579   27.8604 C.3   8573  UNL8573     0.0000
   8621 C          33.4938   27.8604   54.7273 C.3   8574  UNL8574     0.0000
   8622 C          77.9283   83.2258   11.9244 C.3   8575  UNL8575     0.0000
   8623 C          33.1579   72.2949   56.3589 C.3   8576  UNL8576     0.0000
   8624 C          77.5924   38.7913   10.2928 C.3   8577  UNL8577     0.0000
   8625 C           4.9145   28.7402   37.9115 C.3   8578  UNL8578     0.0000
   8626 C          49.3490   37.9115   73.1747 C.3   8579  UNL8579     0.0000
   8627 C          17.3028   73.1747   28.7402 C.3   8580  UNL8580     0.0000
   8628 C          82.3460   61.7373   82.3460 C.3   8581  UNL8581     0.0000
   8629 C          37.9115    4.9145   28.7402 C.3   8582  UNL8582     0.0000
   8630 C          73.1747   49.3490   37.9115 C.3   8583  UNL8583     0.0000
   8631 C          28.7402   17.3028   73.1747 C.3   8584  UNL8584     0.0000
   8632 C          82.3460   82.3460   61.7373 C.3   8585  UNL8585     0.0000
   8633 C          28.7402   37.9115    4.9145 C.3   8586  UNL8586     0.0000
   8634 C          37.9115   73.1747   49.3490 C.3   8587  UNL8587     0.0000
   8635 C          73.1747   28.7402   17.3028 C.3   8588  UNL8588     0.0000
   8636 C          60.1288   83.9545   50.9575 C.3   8589  UNL8589     0.0000
   8637 C           6.5230   27.1317    6.5230 C.3   8590  UNL8590     0.0000
   8638 C          15.6943   71.5662   60.1288 C.3   8591  UNL8591     0.0000
   8639 C          50.9575   39.5200   15.6943 C.3   8592  UNL8592     0.0000
   8640 C          39.5200   15.6943   50.9575 C.3   8593  UNL8593     0.0000
   8641 C          71.5662   60.1288   15.6943 C.3   8594  UNL8594     0.0000
   8642 C          27.1317    6.5230    6.5230 C.3   8595  UNL8595     0.0000
   8643 C          83.9545   50.9575   60.1288 C.3   8596  UNL8596     0.0000
   8644 C          60.1288   15.6943   71.5662 C.3   8597  UNL8597     0.0000
   8645 C          15.6943   50.9575   39.5200 C.3   8598  UNL8598     0.0000
   8646 C          50.9575   60.1288   83.9545 C.3   8599  UNL8599     0.0000
   8647 C           6.5230    6.5230   27.1317 C.3   8600  UNL8600     0.0000
   8648 C          83.9545   60.1288   50.9575 C.3   8601  UNL8601     0.0000
   8649 C          39.5200   50.9575   15.6943 C.3   8602  UNL8602     0.0000
   8650 C          71.5662   15.6943   60.1288 C.3   8603  UNL8603     0.0000
   8651 C          50.9575   83.9545   60.1288 C.3   8604  UNL8604     0.0000
   8652 C          15.6943   39.5200   50.9575 C.3   8605  UNL8605     0.0000
   8653 C          60.1288   71.5662   15.6943 C.3   8606  UNL8606     0.0000
   8654 C          60.1288   50.9575   83.9545 C.3   8607  UNL8607     0.0000
   8655 C          50.9575   15.6943   39.5200 C.3   8608  UNL8608     0.0000
   8656 C          15.6943   60.1288   71.5662 C.3   8609  UNL8609     0.0000
   8657 C          28.7402    4.9145   37.9115 C.3   8610  UNL8610     0.0000
   8658 C          73.1747   17.3028   28.7402 C.3   8611  UNL8611     0.0000
   8659 C          37.9115   49.3490   73.1747 C.3   8612  UNL8612     0.0000
   8660 C          49.3490   73.1747   37.9115 C.3   8613  UNL8613     0.0000
   8661 C          17.3028   28.7402   73.1747 C.3   8614  UNL8614     0.0000
   8662 C           4.9145   37.9115   28.7402 C.3   8615  UNL8615     0.0000
   8663 C          28.7402   73.1747   17.3028 C.3   8616  UNL8616     0.0000
   8664 C          73.1747   37.9115   49.3490 C.3   8617  UNL8617     0.0000
   8665 C          37.9115   28.7402    4.9145 C.3   8618  UNL8618     0.0000
   8666 C          61.7373   37.9115   37.9115 C.3   8619  UNL8619     0.0000
   8667 C           4.9145   73.1747   82.3460 C.3   8620  UNL8620     0.0000
   8668 C          49.3490   82.3460   28.7402 C.3   8621  UNL8621     0.0000
   8669 C          82.3460   17.3028   37.9115 C.3   8622  UNL8622     0.0000
   8670 C          73.1747    4.9145   82.3460 C.3   8623  UNL8623     0.0000
   8671 C          28.7402   61.7373   28.7402 C.3   8624  UNL8624     0.0000
   8672 C          82.3460   37.9115   17.3028 C.3   8625  UNL8625     0.0000
   8673 C          28.7402   82.3460   49.3490 C.3   8626  UNL8626     0.0000
   8674 C          73.1747   73.1747   61.7373 C.3   8627  UNL8627     0.0000
   8675 C          60.1288   39.5200    6.5230 C.3   8628  UNL8628     0.0000
   8676 C           6.5230   71.5662   50.9575 C.3   8629  UNL8629     0.0000
   8677 C          15.6943   27.1317   15.6943 C.3   8630  UNL8630     0.0000
   8678 C          39.5200   60.1288    6.5230 C.3   8631  UNL8631     0.0000
   8679 C          27.1317   50.9575   50.9575 C.3   8632  UNL8632     0.0000
   8680 C          83.9545    6.5230   15.6943 C.3   8633  UNL8633     0.0000
   8681 C          60.1288   60.1288   27.1317 C.3   8634  UNL8634     0.0000
   8682 C          15.6943    6.5230   83.9545 C.3   8635  UNL8635     0.0000
   8683 C           6.5230   50.9575   71.5662 C.3   8636  UNL8636     0.0000
   8684 C          83.9545   15.6943    6.5230 C.3   8637  UNL8637     0.0000
   8685 C          39.5200    6.5230   60.1288 C.3   8638  UNL8638     0.0000
   8686 C          15.6943   83.9545    6.5230 C.3   8639  UNL8639     0.0000
   8687 C          60.1288   27.1317   60.1288 C.3   8640  UNL8640     0.0000
   8688 C          60.1288    6.5230   39.5200 C.3   8641  UNL8641     0.0000
   8689 C          15.6943   15.6943   27.1317 C.3   8642  UNL8642     0.0000
   8690 C          28.7402   49.3490   82.3460 C.3   8643  UNL8643     0.0000
   8691 C          73.1747   61.7373   73.1747 C.3   8644  UNL8644     0.0000
   8692 C          49.3490   28.7402   82.3460 C.3   8645  UNL8645     0.0000
   8693 C           4.9145   82.3460   73.1747 C.3   8646  UNL8646     0.0000
   8694 C          28.7402   28.7402   61.7373 C.3   8647  UNL8647     0.0000
   8695 C          73.1747   82.3460    4.9145 C.3   8648  UNL8648     0.0000
   8696 C          17.3028   82.3460   37.9115 C.3   8649  UNL8649     0.0000
   8697 C          61.7373   73.1747   73.1747 C.3   8650  UNL8650     0.0000
   8698 C          37.9115   61.7373   37.9115 C.3   8651  UNL8651     0.0000
   8699 C          82.3460    4.9145   73.1747 C.3   8652  UNL8652     0.0000
   8700 C          37.9115   82.3460   17.3028 C.3   8653  UNL8653     0.0000
   8701 C          82.3460   73.1747    4.9145 C.3   8654  UNL8654     0.0000
   8702 C          50.9575   27.1317   50.9575 C.3   8655  UNL8655     0.0000
   8703 C           6.5230   39.5200   60.1288 C.3   8656  UNL8656     0.0000
   8704 C          27.1317   60.1288   60.1288 C.3   8657  UNL8657     0.0000
   8705 C          71.5662    6.5230   50.9575 C.3   8658  UNL8658     0.0000
   8706 C           6.5230   60.1288   39.5200 C.3   8659  UNL8659     0.0000
   8707 C          50.9575    6.5230   71.5662 C.3   8660  UNL8660     0.0000
   8708 C          27.1317   15.6943   15.6943 C.3   8661  UNL8661     0.0000
   8709 C           6.5230   83.9545   15.6943 C.3   8662  UNL8662     0.0000
   8710 C           6.5230   15.6943   83.9545 C.3   8663  UNL8663     0.0000
   8711 C          82.3460   49.3490   28.7402 C.3   8664  UNL8664     0.0000
   8712 C          61.7373   28.7402   28.7402 C.3   8665  UNL8665     0.0000
   8713 C          82.3460   28.7402   49.3490 C.3   8666  UNL8666     0.0000
   8714 C          17.3028   37.9115   82.3460 C.3   8667  UNL8667     0.0000
   8715 C          37.9115   17.3028   82.3460 C.3   8668  UNL8668     0.0000
   8716 C          37.9115   37.9115   61.7373 C.3   8669  UNL8669     0.0000
   8717 C          50.9575   71.5662    6.5230 C.3   8670  UNL8670     0.0000
   8718 C          71.5662   50.9575    6.5230 C.3   8671  UNL8671     0.0000
   8719 C          50.9575   50.9575   27.1317 C.3   8672  UNL8672     0.0000
   8720 C           5.5765   29.6316   37.0202 C.3   8673  UNL8673     0.0000
   8721 C          50.0110   37.0202   74.0661 C.3   8674  UNL8674     0.0000
   8722 C          16.6407   74.0661   29.6316 C.3   8675  UNL8675     0.0000
   8723 C          81.4547   61.0752   81.4547 C.3   8676  UNL8676     0.0000
   8724 C          37.0202    5.5765   29.6316 C.3   8677  UNL8677     0.0000
   8725 C          74.0661   50.0110   37.0202 C.3   8678  UNL8678     0.0000
   8726 C          29.6316   16.6407   74.0661 C.3   8679  UNL8679     0.0000
   8727 C          81.4547   81.4547   61.0752 C.3   8680  UNL8680     0.0000
   8728 C          29.6316   37.0202    5.5765 C.3   8681  UNL8681     0.0000
   8729 C          37.0202   74.0661   50.0110 C.3   8682  UNL8682     0.0000
   8730 C          74.0661   29.6316   16.6407 C.3   8683  UNL8683     0.0000
   8731 C          59.2374   83.2925   51.8488 C.3   8684  UNL8684     0.0000
   8732 C           7.4143   27.7938    7.4143 C.3   8685  UNL8685     0.0000
   8733 C          14.8029   72.2283   59.2374 C.3   8686  UNL8686     0.0000
   8734 C          51.8488   38.8580   14.8029 C.3   8687  UNL8687     0.0000
   8735 C          38.8580   14.8029   51.8488 C.3   8688  UNL8688     0.0000
   8736 C          72.2283   59.2374   14.8029 C.3   8689  UNL8689     0.0000
   8737 C          27.7938    7.4143    7.4143 C.3   8690  UNL8690     0.0000
   8738 C          83.2925   51.8488   59.2374 C.3   8691  UNL8691     0.0000
   8739 C          59.2374   14.8029   72.2283 C.3   8692  UNL8692     0.0000
   8740 C          14.8029   51.8488   38.8580 C.3   8693  UNL8693     0.0000
   8741 C          51.8488   59.2374   83.2925 C.3   8694  UNL8694     0.0000
   8742 C           7.4143    7.4143   27.7938 C.3   8695  UNL8695     0.0000
   8743 C          83.2925   59.2374   51.8488 C.3   8696  UNL8696     0.0000
   8744 C          38.8580   51.8488   14.8029 C.3   8697  UNL8697     0.0000
   8745 C          72.2283   14.8029   59.2374 C.3   8698  UNL8698     0.0000
   8746 C          51.8488   83.2925   59.2374 C.3   8699  UNL8699     0.0000
   8747 C          14.8029   38.8580   51.8488 C.3   8700  UNL8700     0.0000
   8748 C          59.2374   72.2283   14.8029 C.3   8701  UNL8701     0.0000
   8749 C          59.2374   51.8488   83.2925 C.3   8702  UNL8702     0.0000
   8750 C          51.8488   14.8029   38.8580 C.3   8703  UNL8703     0.0000
   8751 C          14.8029   59.2374   72.2283 C.3   8704  UNL8704     0.0000
   8752 C          29.6316    5.5765   37.0202 C.3   8705  UNL8705     0.0000
   8753 C          74.0661   16.6407   29.6316 C.3   8706  UNL8706     0.0000
   8754 C          37.0202   50.0110   74.0661 C.3   8707  UNL8707     0.0000
   8755 C          50.0110   74.0661   37.0202 C.3   8708  UNL8708     0.0000
   8756 C          16.6407   29.6316   74.0661 C.3   8709  UNL8709     0.0000
   8757 C           5.5765   37.0202   29.6316 C.3   8710  UNL8710     0.0000
   8758 C          29.6316   74.0661   16.6407 C.3   8711  UNL8711     0.0000
   8759 C          74.0661   37.0202   50.0110 C.3   8712  UNL8712     0.0000
   8760 C          37.0202   29.6316    5.5765 C.3   8713  UNL8713     0.0000
   8761 C          61.0752   37.0202   37.0202 C.3   8714  UNL8714     0.0000
   8762 C           5.5765   74.0661   81.4547 C.3   8715  UNL8715     0.0000
   8763 C          50.0110   81.4547   29.6316 C.3   8716  UNL8716     0.0000
   8764 C          81.4547   16.6407   37.0202 C.3   8717  UNL8717     0.0000
   8765 C          74.0661    5.5765   81.4547 C.3   8718  UNL8718     0.0000
   8766 C          29.6316   61.0752   29.6316 C.3   8719  UNL8719     0.0000
   8767 C          81.4547   37.0202   16.6407 C.3   8720  UNL8720     0.0000
   8768 C          29.6316   81.4547   50.0110 C.3   8721  UNL8721     0.0000
   8769 C          74.0661   74.0661   61.0752 C.3   8722  UNL8722     0.0000
   8770 C          59.2374   38.8580    7.4143 C.3   8723  UNL8723     0.0000
   8771 C           7.4143   72.2283   51.8488 C.3   8724  UNL8724     0.0000
   8772 C          14.8029   27.7938   14.8029 C.3   8725  UNL8725     0.0000
   8773 C          38.8580   59.2374    7.4143 C.3   8726  UNL8726     0.0000
   8774 C          27.7938   51.8488   51.8488 C.3   8727  UNL8727     0.0000
   8775 C          83.2925    7.4143   14.8029 C.3   8728  UNL8728     0.0000
   8776 C          59.2374   59.2374   27.7938 C.3   8729  UNL8729     0.0000
   8777 C          14.8029    7.4143   83.2925 C.3   8730  UNL8730     0.0000
   8778 C           7.4143   51.8488   72.2283 C.3   8731  UNL8731     0.0000
   8779 C          83.2925   14.8029    7.4143 C.3   8732  UNL8732     0.0000
   8780 C          38.8580    7.4143   59.2374 C.3   8733  UNL8733     0.0000
   8781 C          14.8029   83.2925    7.4143 C.3   8734  UNL8734     0.0000
   8782 C          59.2374   27.7938   59.2374 C.3   8735  UNL8735     0.0000
   8783 C          59.2374    7.4143   38.8580 C.3   8736  UNL8736     0.0000
   8784 C          14.8029   14.8029   27.7938 C.3   8737  UNL8737     0.0000
   8785 C          29.6316   50.0110   81.4547 C.3   8738  UNL8738     0.0000
   8786 C          74.0661   61.0752   74.0661 C.3   8739  UNL8739     0.0000
   8787 C          50.0110   29.6316   81.4547 C.3   8740  UNL8740     0.0000
   8788 C           5.5765   81.4547   74.0661 C.3   8741  UNL8741     0.0000
   8789 C          29.6316   29.6316   61.0752 C.3   8742  UNL8742     0.0000
   8790 C          74.0661   81.4547    5.5765 C.3   8743  UNL8743     0.0000
   8791 C          16.6407   81.4547   37.0202 C.3   8744  UNL8744     0.0000
   8792 C          61.0752   74.0661   74.0661 C.3   8745  UNL8745     0.0000
   8793 C          37.0202   61.0752   37.0202 C.3   8746  UNL8746     0.0000
   8794 C          81.4547    5.5765   74.0661 C.3   8747  UNL8747     0.0000
   8795 C          37.0202   81.4547   16.6407 C.3   8748  UNL8748     0.0000
   8796 C          81.4547   74.0661    5.5765 C.3   8749  UNL8749     0.0000
   8797 C          51.8488   27.7938   51.8488 C.3   8750  UNL8750     0.0000
   8798 C           7.4143   38.8580   59.2374 C.3   8751  UNL8751     0.0000
   8799 C          27.7938   59.2374   59.2374 C.3   8752  UNL8752     0.0000
   8800 C          72.2283    7.4143   51.8488 C.3   8753  UNL8753     0.0000
   8801 C           7.4143   59.2374   38.8580 C.3   8754  UNL8754     0.0000
   8802 C          51.8488    7.4143   72.2283 C.3   8755  UNL8755     0.0000
   8803 C          27.7938   14.8029   14.8029 C.3   8756  UNL8756     0.0000
   8804 C           7.4143   83.2925   14.8029 C.3   8757  UNL8757     0.0000
   8805 C           7.4143   14.8029   83.2925 C.3   8758  UNL8758     0.0000
   8806 C          81.4547   50.0110   29.6316 C.3   8759  UNL8759     0.0000
   8807 C          61.0752   29.6316   29.6316 C.3   8760  UNL8760     0.0000
   8808 C          81.4547   29.6316   50.0110 C.3   8761  UNL8761     0.0000
   8809 C          16.6407   37.0202   81.4547 C.3   8762  UNL8762     0.0000
   8810 C          37.0202   16.6407   81.4547 C.3   8763  UNL8763     0.0000
   8811 C          37.0202   37.0202   61.0752 C.3   8764  UNL8764     0.0000
   8812 C          51.8488   72.2283    7.4143 C.3   8765  UNL8765     0.0000
   8813 C          72.2283   51.8488    7.4143 C.3   8766  UNL8766     0.0000
   8814 C          51.8488   51.8488   27.7938 C.3   8767  UNL8767     0.0000
   8815 C           8.5661   31.8382   34.8135 C.3   8768  UNL8768     0.0000
   8816 C          53.0006   34.8135   76.2727 C.3   8769  UNL8769     0.0000
   8817 C          13.6512   76.2727   31.8382 C.3   8770  UNL8770     0.0000
   8818 C          79.2480   58.0857   79.2480 C.3   8771  UNL8771     0.0000
   8819 C          34.8135    8.5661   31.8382 C.3   8772  UNL8772     0.0000
   8820 C          76.2727   53.0006   34.8135 C.3   8773  UNL8773     0.0000
   8821 C          31.8382   13.6512   76.2727 C.3   8774  UNL8774     0.0000
   8822 C          79.2480   79.2480   58.0857 C.3   8775  UNL8775     0.0000
   8823 C          31.8382   34.8135    8.5661 C.3   8776  UNL8776     0.0000
   8824 C          34.8135   76.2727   53.0006 C.3   8777  UNL8777     0.0000
   8825 C          76.2727   31.8382   13.6512 C.3   8778  UNL8778     0.0000
   8826 C          57.0308   80.3029   54.0555 C.3   8779  UNL8779     0.0000
   8827 C           9.6210   30.7833    9.6210 C.3   8780  UNL8780     0.0000
   8828 C          12.5963   75.2178   57.0308 C.3   8781  UNL8781     0.0000
   8829 C          54.0555   35.8684   12.5963 C.3   8782  UNL8782     0.0000
   8830 C          35.8684   12.5963   54.0555 C.3   8783  UNL8783     0.0000
   8831 C          75.2178   57.0308   12.5963 C.3   8784  UNL8784     0.0000
   8832 C          30.7833    9.6210    9.6210 C.3   8785  UNL8785     0.0000
   8833 C          80.3029   54.0555   57.0308 C.3   8786  UNL8786     0.0000
   8834 C          57.0308   12.5963   75.2178 C.3   8787  UNL8787     0.0000
   8835 C          12.5963   54.0555   35.8684 C.3   8788  UNL8788     0.0000
   8836 C          54.0555   57.0308   80.3029 C.3   8789  UNL8789     0.0000
   8837 C           9.6210    9.6210   30.7833 C.3   8790  UNL8790     0.0000
   8838 C          80.3029   57.0308   54.0555 C.3   8791  UNL8791     0.0000
   8839 C          35.8684   54.0555   12.5963 C.3   8792  UNL8792     0.0000
   8840 C          75.2178   12.5963   57.0308 C.3   8793  UNL8793     0.0000
   8841 C          54.0555   80.3029   57.0308 C.3   8794  UNL8794     0.0000
   8842 C          12.5963   35.8684   54.0555 C.3   8795  UNL8795     0.0000
   8843 C          57.0308   75.2178   12.5963 C.3   8796  UNL8796     0.0000
   8844 C          57.0308   54.0555   80.3029 C.3   8797  UNL8797     0.0000
   8845 C          54.0555   12.5963   35.8684 C.3   8798  UNL8798     0.0000
   8846 C          12.5963   57.0308   75.2178 C.3   8799  UNL8799     0.0000
   8847 C          31.8382    8.5661   34.8135 C.3   8800  UNL8800     0.0000
   8848 C          76.2727   13.6512   31.8382 C.3   8801  UNL8801     0.0000
   8849 C          34.8135   53.0006   76.2727 C.3   8802  UNL8802     0.0000
   8850 C          53.0006   76.2727   34.8135 C.3   8803  UNL8803     0.0000
   8851 C          13.6512   31.8382   76.2727 C.3   8804  UNL8804     0.0000
   8852 C           8.5661   34.8135   31.8382 C.3   8805  UNL8805     0.0000
   8853 C          31.8382   76.2727   13.6512 C.3   8806  UNL8806     0.0000
   8854 C          76.2727   34.8135   53.0006 C.3   8807  UNL8807     0.0000
   8855 C          34.8135   31.8382    8.5661 C.3   8808  UNL8808     0.0000
   8856 C          58.0857   34.8135   34.8135 C.3   8809  UNL8809     0.0000
   8857 C           8.5661   76.2727   79.2480 C.3   8810  UNL8810     0.0000
   8858 C          53.0006   79.2480   31.8382 C.3   8811  UNL8811     0.0000
   8859 C          79.2480   13.6512   34.8135 C.3   8812  UNL8812     0.0000
   8860 C          76.2727    8.5661   79.2480 C.3   8813  UNL8813     0.0000
   8861 C          31.8382   58.0857   31.8382 C.3   8814  UNL8814     0.0000
   8862 C          79.2480   34.8135   13.6512 C.3   8815  UNL8815     0.0000
   8863 C          31.8382   79.2480   53.0006 C.3   8816  UNL8816     0.0000
   8864 C          76.2727   76.2727   58.0857 C.3   8817  UNL8817     0.0000
   8865 C          57.0308   35.8684    9.6210 C.3   8818  UNL8818     0.0000
   8866 C           9.6210   75.2178   54.0555 C.3   8819  UNL8819     0.0000
   8867 C          12.5963   30.7833   12.5963 C.3   8820  UNL8820     0.0000
   8868 C          35.8684   57.0308    9.6210 C.3   8821  UNL8821     0.0000
   8869 C          30.7833   54.0555   54.0555 C.3   8822  UNL8822     0.0000
   8870 C          80.3029    9.6210   12.5963 C.3   8823  UNL8823     0.0000
   8871 C          57.0308   57.0308   30.7833 C.3   8824  UNL8824     0.0000
   8872 C          12.5963    9.6210   80.3029 C.3   8825  UNL8825     0.0000
   8873 C           9.6210   54.0555   75.2178 C.3   8826  UNL8826     0.0000
   8874 C          80.3029   12.5963    9.6210 C.3   8827  UNL8827     0.0000
   8875 C          35.8684    9.6210   57.0308 C.3   8828  UNL8828     0.0000
   8876 C          12.5963   80.3029    9.6210 C.3   8829  UNL8829     0.0000
   8877 C          57.0308   30.7833   57.0308 C.3   8830  UNL8830     0.0000
   8878 C          57.0308    9.6210   35.8684 C.3   8831  UNL8831     0.0000
   8879 C          12.5963   12.5963   30.7833 C.3   8832  UNL8832     0.0000
   8880 C          31.8382   53.0006   79.2480 C.3   8833  UNL8833     0.0000
   8881 C          76.2727   58.0857   76.2727 C.3   8834  UNL8834     0.0000
   8882 C          53.0006   31.8382   79.2480 C.3   8835  UNL8835     0.0000
   8883 C           8.5661   79.2480   76.2727 C.3   8836  UNL8836     0.0000
   8884 C          31.8382   31.8382   58.0857 C.3   8837  UNL8837     0.0000
   8885 C          76.2727   79.2480    8.5661 C.3   8838  UNL8838     0.0000
   8886 C          13.6512   79.2480   34.8135 C.3   8839  UNL8839     0.0000
   8887 C          58.0857   76.2727   76.2727 C.3   8840  UNL8840     0.0000
   8888 C          34.8135   58.0857   34.8135 C.3   8841  UNL8841     0.0000
   8889 C          79.2480    8.5661   76.2727 C.3   8842  UNL8842     0.0000
   8890 C          34.8135   79.2480   13.6512 C.3   8843  UNL8843     0.0000
   8891 C          79.2480   76.2727    8.5661 C.3   8844  UNL8844     0.0000
   8892 C          54.0555   30.7833   54.0555 C.3   8845  UNL8845     0.0000
   8893 C           9.6210   35.8684   57.0308 C.3   8846  UNL8846     0.0000
   8894 C          30.7833   57.0308   57.0308 C.3   8847  UNL8847     0.0000
   8895 C          75.2178    9.6210   54.0555 C.3   8848  UNL8848     0.0000
   8896 C           9.6210   57.0308   35.8684 C.3   8849  UNL8849     0.0000
   8897 C          54.0555    9.6210   75.2178 C.3   8850  UNL8850     0.0000
   8898 C          30.7833   12.5963   12.5963 C.3   8851  UNL8851     0.0000
   8899 C           9.6210   80.3029   12.5963 C.3   8852  UNL8852     0.0000
   8900 C           9.6210   12.5963   80.3029 C.3   8853  UNL8853     0.0000
   8901 C          79.2480   53.0006   31.8382 C.3   8854  UNL8854     0.0000
   8902 C          58.0857   31.8382   31.8382 C.3   8855  UNL8855     0.0000
   8903 C          79.2480   31.8382   53.0006 C.3   8856  UNL8856     0.0000
   8904 C          13.6512   34.8135   79.2480 C.3   8857  UNL8857     0.0000
   8905 C          34.8135   13.6512   79.2480 C.3   8858  UNL8858     0.0000
   8906 C          34.8135   34.8135   58.0857 C.3   8859  UNL8859     0.0000
   8907 C          54.0555   75.2178    9.6210 C.3   8860  UNL8860     0.0000
   8908 C          75.2178   54.0555    9.6210 C.3   8861  UNL8861     0.0000
   8909 C          54.0555   54.0555   30.7833 C.3   8862  UNL8862     0.0000
   8910 C           7.8347   30.9300   35.7218 C.3   8863  UNL8863     0.0000
   8911 C          52.2692   35.7218   75.3645 C.3   8864  UNL8864     0.0000
   8912 C          14.3826   75.3645   30.9300 C.3   8865  UNL8865     0.0000
   8913 C          80.1563   58.8171   80.1563 C.3   8866  UNL8866     0.0000
   8914 C          35.7218    7.8347   30.9300 C.3   8867  UNL8867     0.0000
   8915 C          75.3645   52.2692   35.7218 C.3   8868  UNL8868     0.0000
   8916 C          30.9300   14.3826   75.3645 C.3   8869  UNL8869     0.0000
   8917 C          80.1563   80.1563   58.8171 C.3   8870  UNL8870     0.0000
   8918 C          30.9300   35.7218    7.8347 C.3   8871  UNL8871     0.0000
   8919 C          35.7218   75.3645   52.2692 C.3   8872  UNL8872     0.0000
   8920 C          75.3645   30.9300   14.3826 C.3   8873  UNL8873     0.0000
   8921 C          57.9390   81.0343   53.1472 C.3   8874  UNL8874     0.0000
   8922 C           8.7127   30.0519    8.7127 C.3   8875  UNL8875     0.0000
   8923 C          13.5045   74.4864   57.9390 C.3   8876  UNL8876     0.0000
   8924 C          53.1472   36.5998   13.5045 C.3   8877  UNL8877     0.0000
   8925 C          36.5998   13.5045   53.1472 C.3   8878  UNL8878     0.0000
   8926 C          74.4864   57.9390   13.5045 C.3   8879  UNL8879     0.0000
   8927 C          30.0519    8.7127    8.7127 C.3   8880  UNL8880     0.0000
   8928 C          81.0343   53.1472   57.9390 C.3   8881  UNL8881     0.0000
   8929 C          57.9390   13.5045   74.4864 C.3   8882  UNL8882     0.0000
   8930 C          13.5045   53.1472   36.5998 C.3   8883  UNL8883     0.0000
   8931 C          53.1472   57.9390   81.0343 C.3   8884  UNL8884     0.0000
   8932 C           8.7127    8.7127   30.0519 C.3   8885  UNL8885     0.0000
   8933 C          81.0343   57.9390   53.1472 C.3   8886  UNL8886     0.0000
   8934 C          36.5998   53.1472   13.5045 C.3   8887  UNL8887     0.0000
   8935 C          74.4864   13.5045   57.9390 C.3   8888  UNL8888     0.0000
   8936 C          53.1472   81.0343   57.9390 C.3   8889  UNL8889     0.0000
   8937 C          13.5045   36.5998   53.1472 C.3   8890  UNL8890     0.0000
   8938 C          57.9390   74.4864   13.5045 C.3   8891  UNL8891     0.0000
   8939 C          57.9390   53.1472   81.0343 C.3   8892  UNL8892     0.0000
   8940 C          53.1472   13.5045   36.5998 C.3   8893  UNL8893     0.0000
   8941 C          13.5045   57.9390   74.4864 C.3   8894  UNL8894     0.0000
   8942 C          30.9300    7.8347   35.7218 C.3   8895  UNL8895     0.0000
   8943 C          75.3645   14.3826   30.9300 C.3   8896  UNL8896     0.0000
   8944 C          35.7218   52.2692   75.3645 C.3   8897  UNL8897     0.0000
   8945 C          52.2692   75.3645   35.7218 C.3   8898  UNL8898     0.0000
   8946 C          14.3826   30.9300   75.3645 C.3   8899  UNL8899     0.0000
   8947 C           7.8347   35.7218   30.9300 C.3   8900  UNL8900     0.0000
   8948 C          30.9300   75.3645   14.3826 C.3   8901  UNL8901     0.0000
   8949 C          75.3645   35.7218   52.2692 C.3   8902  UNL8902     0.0000
   8950 C          35.7218   30.9300    7.8347 C.3   8903  UNL8903     0.0000
   8951 C          58.8171   35.7218   35.7218 C.3   8904  UNL8904     0.0000
   8952 C           7.8347   75.3645   80.1563 C.3   8905  UNL8905     0.0000
   8953 C          52.2692   80.1563   30.9300 C.3   8906  UNL8906     0.0000
   8954 C          80.1563   14.3826   35.7218 C.3   8907  UNL8907     0.0000
   8955 C          75.3645    7.8347   80.1563 C.3   8908  UNL8908     0.0000
   8956 C          30.9300   58.8171   30.9300 C.3   8909  UNL8909     0.0000
   8957 C          80.1563   35.7218   14.3826 C.3   8910  UNL8910     0.0000
   8958 C          30.9300   80.1563   52.2692 C.3   8911  UNL8911     0.0000
   8959 C          75.3645   75.3645   58.8171 C.3   8912  UNL8912     0.0000
   8960 C          57.9390   36.5998    8.7127 C.3   8913  UNL8913     0.0000
   8961 C           8.7127   74.4864   53.1472 C.3   8914  UNL8914     0.0000
   8962 C          13.5045   30.0519   13.5045 C.3   8915  UNL8915     0.0000
   8963 C          36.5998   57.9390    8.7127 C.3   8916  UNL8916     0.0000
   8964 C          30.0519   53.1472   53.1472 C.3   8917  UNL8917     0.0000
   8965 C          81.0343    8.7127   13.5045 C.3   8918  UNL8918     0.0000
   8966 C          57.9390   57.9390   30.0519 C.3   8919  UNL8919     0.0000
   8967 C          13.5045    8.7127   81.0343 C.3   8920  UNL8920     0.0000
   8968 C           8.7127   53.1472   74.4864 C.3   8921  UNL8921     0.0000
   8969 C          81.0343   13.5045    8.7127 C.3   8922  UNL8922     0.0000
   8970 C          36.5998    8.7127   57.9390 C.3   8923  UNL8923     0.0000
   8971 C          13.5045   81.0343    8.7127 C.3   8924  UNL8924     0.0000
   8972 C          57.9390   30.0519   57.9390 C.3   8925  UNL8925     0.0000
   8973 C          57.9390    8.7127   36.5998 C.3   8926  UNL8926     0.0000
   8974 C          13.5045   13.5045   30.0519 C.3   8927  UNL8927     0.0000
   8975 C          30.9300   52.2692   80.1563 C.3   8928  UNL8928     0.0000
   8976 C          75.3645   58.8171   75.3645 C.3   8929  UNL8929     0.0000
   8977 C          52.2692   30.9300   80.1563 C.3   8930  UNL8930     0.0000
   8978 C           7.8347   80.1563   75.3645 C.3   8931  UNL8931     0.0000
   8979 C          30.9300   30.9300   58.8171 C.3   8932  UNL8932     0.0000
   8980 C          75.3645   80.1563    7.8347 C.3   8933  UNL8933     0.0000
   8981 C          14.3826   80.1563   35.7218 C.3   8934  UNL8934     0.0000
   8982 C          58.8171   75.3645   75.3645 C.3   8935  UNL8935     0.0000
   8983 C          35.7218   58.8171   35.7218 C.3   8936  UNL8936     0.0000
   8984 C          80.1563    7.8347   75.3645 C.3   8937  UNL8937     0.0000
   8985 C          35.7218   80.1563   14.3826 C.3   8938  UNL8938     0.0000
   8986 C          80.1563   75.3645    7.8347 C.3   8939  UNL8939     0.0000
   8987 C          53.1472   30.0519   53.1472 C.3   8940  UNL8940     0.0000
   8988 C           8.7127   36.5998   57.9390 C.3   8941  UNL8941     0.0000
   8989 C          30.0519   57.9390   57.9390 C.3   8942  UNL8942     0.0000
   8990 C          74.4864    8.7127   53.1472 C.3   8943  UNL8943     0.0000
   8991 C           8.7127   57.9390   36.5998 C.3   8944  UNL8944     0.0000
   8992 C          53.1472    8.7127   74.4864 C.3   8945  UNL8945     0.0000
   8993 C          30.0519   13.5045   13.5045 C.3   8946  UNL8946     0.0000
   8994 C           8.7127   81.0343   13.5045 C.3   8947  UNL8947     0.0000
   8995 C           8.7127   13.5045   81.0343 C.3   8948  UNL8948     0.0000
   8996 C          80.1563   52.2692   30.9300 C.3   8949  UNL8949     0.0000
   8997 C          58.8171   30.9300   30.9300 C.3   8950  UNL8950     0.0000
   8998 C          80.1563   30.9300   52.2692 C.3   8951  UNL8951     0.0000
   8999 C          14.3826   35.7218   80.1563 C.3   8952  UNL8952     0.0000
   9000 C          35.7218   14.3826   80.1563 C.3   8953  UNL8953     0.0000
   9001 C          35.7218   35.7218   58.8171 C.3   8954  UNL8954     0.0000
   9002 C          53.1472   74.4864    8.7127 C.3   8955  UNL8955     0.0000
   9003 C          74.4864   53.1472    8.7127 C.3   8956  UNL8956     0.0000
   9004 C          53.1472   53.1472   30.0519 C.3   8957  UNL8957     0.0000
   9005 C           6.2644   29.0406   35.9662 C.3   8958  UNL8958     0.0000
   9006 C          50.6989   37.6111   75.1201 C.3   8959  UNL8959     0.0000
   9007 C          15.9529   73.4751   30.6856 C.3   8960  UNL8960     0.0000
   9008 C          80.4007   60.3874   82.0456 C.3   8961  UNL8961     0.0000
   9009 C          35.9662    6.2644   29.0406 C.3   8962  UNL8962     0.0000
   9010 C          75.1201   50.6989   37.6111 C.3   8963  UNL8963     0.0000
   9011 C          30.6856   15.9529   73.4751 C.3   8964  UNL8964     0.0000
   9012 C          82.0456   80.4007   60.3874 C.3   8965  UNL8965     0.0000
   9013 C          29.0406   35.9662    6.2644 C.3   8966  UNL8966     0.0000
   9014 C          37.6111   75.1201   50.6989 C.3   8967  UNL8967     0.0000
   9015 C          73.4751   30.6856   15.9529 C.3   8968  UNL8968     0.0000
   9016 C          59.8284   82.6046   52.9028 C.3   8969  UNL8969     0.0000
   9017 C           6.8234   28.4816    8.4683 C.3   8970  UNL8970     0.0000
   9018 C          15.3939   72.9161   58.1834 C.3   8971  UNL8971     0.0000
   9019 C          51.2579   38.1701   13.7489 C.3   8972  UNL8972     0.0000
   9020 C          38.1701   13.7489   51.2579 C.3   8973  UNL8973     0.0000
   9021 C          72.9161   58.1834   15.3939 C.3   8974  UNL8974     0.0000
   9022 C          28.4816    8.4683    6.8234 C.3   8975  UNL8975     0.0000
   9023 C          82.6046   52.9028   59.8284 C.3   8976  UNL8976     0.0000
   9024 C          58.1834   15.3939   72.9161 C.3   8977  UNL8977     0.0000
   9025 C          13.7489   51.2579   38.1701 C.3   8978  UNL8978     0.0000
   9026 C          52.9028   59.8284   82.6046 C.3   8979  UNL8979     0.0000
   9027 C           8.4683    6.8234   28.4816 C.3   8980  UNL8980     0.0000
   9028 C          28.4816    6.8234    8.4683 C.3   8981  UNL8981     0.0000
   9029 C          82.6046   59.8284   52.9028 C.3   8982  UNL8982     0.0000
   9030 C          38.1701   51.2579   13.7489 C.3   8983  UNL8983     0.0000
   9031 C          72.9161   15.3939   58.1834 C.3   8984  UNL8984     0.0000
   9032 C           8.4683   28.4816    6.8234 C.3   8985  UNL8985     0.0000
   9033 C          52.9028   82.6046   59.8284 C.3   8986  UNL8986     0.0000
   9034 C          13.7489   38.1701   51.2579 C.3   8987  UNL8987     0.0000
   9035 C          58.1834   72.9161   15.3939 C.3   8988  UNL8988     0.0000
   9036 C           6.8234    8.4683   28.4816 C.3   8989  UNL8989     0.0000
   9037 C          59.8284   52.9028   82.6046 C.3   8990  UNL8990     0.0000
   9038 C          51.2579   13.7489   38.1701 C.3   8991  UNL8991     0.0000
   9039 C          15.3939   58.1834   72.9161 C.3   8992  UNL8992     0.0000
   9040 C          29.0406    6.2644   35.9662 C.3   8993  UNL8993     0.0000
   9041 C          82.0456   60.3874   80.4007 C.3   8994  UNL8994     0.0000
   9042 C          73.4751   15.9529   30.6856 C.3   8995  UNL8995     0.0000
   9043 C          37.6111   50.6989   75.1201 C.3   8996  UNL8996     0.0000
   9044 C          50.6989   75.1201   37.6111 C.3   8997  UNL8997     0.0000
   9045 C          15.9529   30.6856   73.4751 C.3   8998  UNL8998     0.0000
   9046 C          60.3874   80.4007   82.0456 C.3   8999  UNL8999     0.0000
   9047 C           6.2644   35.9662   29.0406 C.3   9000  UNL9000     0.0000
   9048 C          30.6856   73.4751   15.9529 C.3   9001  UNL9001     0.0000
   9049 C          75.1201   37.6111   50.6989 C.3   9002  UNL9002     0.0000
   9050 C          35.9662   29.0406    6.2644 C.3   9003  UNL9003     0.0000
   9051 C          80.4007   82.0456   60.3874 C.3   9004  UNL9004     0.0000
   9052 C          60.3874   37.6111   35.9662 C.3   9005  UNL9005     0.0000
   9053 C           6.2644   73.4751   80.4007 C.3   9006  UNL9006     0.0000
   9054 C          50.6989   82.0456   30.6856 C.3   9007  UNL9007     0.0000
   9055 C          15.9529   29.0406   75.1201 C.3   9008  UNL9008     0.0000
   9056 C          80.4007   15.9529   37.6111 C.3   9009  UNL9009     0.0000
   9057 C          35.9662   50.6989   73.4751 C.3   9010  UNL9010     0.0000
   9058 C          75.1201    6.2644   82.0456 C.3   9011  UNL9011     0.0000
   9059 C          30.6856   60.3874   29.0406 C.3   9012  UNL9012     0.0000
   9060 C          82.0456   35.9662   15.9529 C.3   9013  UNL9013     0.0000
   9061 C          29.0406   80.4007   50.6989 C.3   9014  UNL9014     0.0000
   9062 C          37.6111   30.6856    6.2644 C.3   9015  UNL9015     0.0000
   9063 C          73.4751   75.1201   60.3874 C.3   9016  UNL9016     0.0000
   9064 C          59.8284   38.1701    8.4683 C.3   9017  UNL9017     0.0000
   9065 C           6.8234   72.9161   52.9028 C.3   9018  UNL9018     0.0000
   9066 C          15.3939   28.4816   13.7489 C.3   9019  UNL9019     0.0000
   9067 C          51.2579   82.6046   58.1834 C.3   9020  UNL9020     0.0000
   9068 C          38.1701   58.1834    6.8234 C.3   9021  UNL9021     0.0000
   9069 C          72.9161   13.7489   59.8284 C.3   9022  UNL9022     0.0000
   9070 C          28.4816   52.9028   51.2579 C.3   9023  UNL9023     0.0000
   9071 C          82.6046    8.4683   15.3939 C.3   9024  UNL9024     0.0000
   9072 C          58.1834   59.8284   28.4816 C.3   9025  UNL9025     0.0000
   9073 C          13.7489    6.8234   82.6046 C.3   9026  UNL9026     0.0000
   9074 C          52.9028   15.3939   38.1701 C.3   9027  UNL9027     0.0000
   9075 C           8.4683   51.2579   72.9161 C.3   9028  UNL9028     0.0000
   9076 C          28.4816   51.2579   52.9028 C.3   9029  UNL9029     0.0000
   9077 C          82.6046   15.3939    8.4683 C.3   9030  UNL9030     0.0000
   9078 C          38.1701    6.8234   58.1834 C.3   9031  UNL9031     0.0000
   9079 C          72.9161   59.8284   13.7489 C.3   9032  UNL9032     0.0000
   9080 C           8.4683   72.9161   51.2579 C.3   9033  UNL9033     0.0000
   9081 C          52.9028   38.1701   15.3939 C.3   9034  UNL9034     0.0000
   9082 C          13.7489   82.6046    6.8234 C.3   9035  UNL9035     0.0000
   9083 C          58.1834   28.4816   59.8284 C.3   9036  UNL9036     0.0000
   9084 C           6.8234   52.9028   72.9161 C.3   9037  UNL9037     0.0000
   9085 C          59.8284    8.4683   38.1701 C.3   9038  UNL9038     0.0000
   9086 C          51.2579   58.1834   82.6046 C.3   9039  UNL9039     0.0000
   9087 C          15.3939   13.7489   28.4816 C.3   9040  UNL9040     0.0000
   9088 C          29.0406   50.6989   80.4007 C.3   9041  UNL9041     0.0000
   9089 C          82.0456   15.9529   35.9662 C.3   9042  UNL9042     0.0000
   9090 C          73.4751   60.3874   75.1201 C.3   9043  UNL9043     0.0000
   9091 C          37.6111    6.2644   30.6856 C.3   9044  UNL9044     0.0000
   9092 C          50.6989   30.6856   82.0456 C.3   9045  UNL9045     0.0000
   9093 C          15.9529   75.1201   29.0406 C.3   9046  UNL9046     0.0000
   9094 C          60.3874   35.9662   37.6111 C.3   9047  UNL9047     0.0000
   9095 C           6.2644   80.4007   73.4751 C.3   9048  UNL9048     0.0000
   9096 C          30.6856   29.0406   60.3874 C.3   9049  UNL9049     0.0000
   9097 C          75.1201   82.0456    6.2644 C.3   9050  UNL9050     0.0000
   9098 C          35.9662   73.4751   50.6989 C.3   9051  UNL9051     0.0000
   9099 C          80.4007   37.6111   15.9529 C.3   9052  UNL9052     0.0000
   9100 C          15.9529   82.0456   35.9662 C.3   9053  UNL9053     0.0000
   9101 C          50.6989   29.0406   80.4007 C.3   9054  UNL9054     0.0000
   9102 C           6.2644   37.6111   30.6856 C.3   9055  UNL9055     0.0000
   9103 C          60.3874   73.4751   75.1201 C.3   9056  UNL9056     0.0000
   9104 C          35.9662   60.3874   37.6111 C.3   9057  UNL9057     0.0000
   9105 C          80.4007    6.2644   73.4751 C.3   9058  UNL9058     0.0000
   9106 C          30.6856   50.6989   82.0456 C.3   9059  UNL9059     0.0000
   9107 C          75.1201   15.9529   29.0406 C.3   9060  UNL9060     0.0000
   9108 C          37.6111   80.4007   15.9529 C.3   9061  UNL9061     0.0000
   9109 C          73.4751   35.9662   50.6989 C.3   9062  UNL9062     0.0000
   9110 C          82.0456   75.1201    6.2644 C.3   9063  UNL9063     0.0000
   9111 C          29.0406   30.6856   60.3874 C.3   9064  UNL9064     0.0000
   9112 C          15.3939   82.6046    8.4683 C.3   9065  UNL9065     0.0000
   9113 C          51.2579   28.4816   52.9028 C.3   9066  UNL9066     0.0000
   9114 C          59.8284   72.9161   13.7489 C.3   9067  UNL9067     0.0000
   9115 C           6.8234   38.1701   58.1834 C.3   9068  UNL9068     0.0000
   9116 C          82.6046   13.7489    6.8234 C.3   9069  UNL9069     0.0000
   9117 C          28.4816   58.1834   59.8284 C.3   9070  UNL9070     0.0000
   9118 C          72.9161    8.4683   51.2579 C.3   9071  UNL9071     0.0000
   9119 C          38.1701   52.9028   15.3939 C.3   9072  UNL9072     0.0000
   9120 C          13.7489   15.3939   28.4816 C.3   9073  UNL9073     0.0000
   9121 C          58.1834   51.2579   82.6046 C.3   9074  UNL9074     0.0000
   9122 C           8.4683   59.8284   38.1701 C.3   9075  UNL9075     0.0000
   9123 C          52.9028    6.8234   72.9161 C.3   9076  UNL9076     0.0000
   9124 C          72.9161    6.8234   52.9028 C.3   9077  UNL9077     0.0000
   9125 C          38.1701   59.8284    8.4683 C.3   9078  UNL9078     0.0000
   9126 C          82.6046   51.2579   58.1834 C.3   9079  UNL9079     0.0000
   9127 C          28.4816   15.3939   13.7489 C.3   9080  UNL9080     0.0000
   9128 C          52.9028   28.4816   51.2579 C.3   9081  UNL9081     0.0000
   9129 C           8.4683   82.6046   15.3939 C.3   9082  UNL9082     0.0000
   9130 C          58.1834   38.1701    6.8234 C.3   9083  UNL9083     0.0000
   9131 C          13.7489   72.9161   59.8284 C.3   9084  UNL9084     0.0000
   9132 C          51.2579    8.4683   72.9161 C.3   9085  UNL9085     0.0000
   9133 C          15.3939   52.9028   38.1701 C.3   9086  UNL9086     0.0000
   9134 C           6.8234   13.7489   82.6046 C.3   9087  UNL9087     0.0000
   9135 C          59.8284   58.1834   28.4816 C.3   9088  UNL9088     0.0000
   9136 C          73.4751    6.2644   80.4007 C.3   9089  UNL9089     0.0000
   9137 C          37.6111   60.3874   35.9662 C.3   9090  UNL9090     0.0000
   9138 C          29.0406   15.9529   75.1201 C.3   9091  UNL9091     0.0000
   9139 C          82.0456   50.6989   30.6856 C.3   9092  UNL9092     0.0000
   9140 C           6.2644   75.1201   82.0456 C.3   9093  UNL9093     0.0000
   9141 C          60.3874   30.6856   29.0406 C.3   9094  UNL9094     0.0000
   9142 C          15.9529   80.4007   37.6111 C.3   9095  UNL9095     0.0000
   9143 C          50.6989   35.9662   73.4751 C.3   9096  UNL9096     0.0000
   9144 C          75.1201   73.4751   60.3874 C.3   9097  UNL9097     0.0000
   9145 C          30.6856   37.6111    6.2644 C.3   9098  UNL9098     0.0000
   9146 C          80.4007   29.0406   50.6989 C.3   9099  UNL9099     0.0000
   9147 C          35.9662   82.0456   15.9529 C.3   9100  UNL9100     0.0000
   9148 C          15.9529   37.6111   80.4007 C.3   9101  UNL9101     0.0000
   9149 C          50.6989   73.4751   35.9662 C.3   9102  UNL9102     0.0000
   9150 C           6.2644   82.0456   75.1201 C.3   9103  UNL9103     0.0000
   9151 C          60.3874   29.0406   30.6856 C.3   9104  UNL9104     0.0000
   9152 C          35.9662   15.9529   82.0456 C.3   9105  UNL9105     0.0000
   9153 C          80.4007   50.6989   29.0406 C.3   9106  UNL9106     0.0000
   9154 C          30.6856    6.2644   37.6111 C.3   9107  UNL9107     0.0000
   9155 C          75.1201   60.3874   73.4751 C.3   9108  UNL9108     0.0000
   9156 C          37.6111   35.9662   60.3874 C.3   9109  UNL9109     0.0000
   9157 C          73.4751   80.4007    6.2644 C.3   9110  UNL9110     0.0000
   9158 C          82.0456   30.6856   50.6989 C.3   9111  UNL9111     0.0000
   9159 C          29.0406   75.1201   15.9529 C.3   9112  UNL9112     0.0000
   9160 C          15.3939   38.1701   52.9028 C.3   9113  UNL9113     0.0000
   9161 C          51.2579   72.9161    8.4683 C.3   9114  UNL9114     0.0000
   9162 C          59.8284   28.4816   58.1834 C.3   9115  UNL9115     0.0000
   9163 C           6.8234   82.6046   13.7489 C.3   9116  UNL9116     0.0000
   9164 C          82.6046   58.1834   51.2579 C.3   9117  UNL9117     0.0000
   9165 C          28.4816   13.7489   15.3939 C.3   9118  UNL9118     0.0000
   9166 C          72.9161   52.9028    6.8234 C.3   9119  UNL9119     0.0000
   9167 C          38.1701    8.4683   59.8284 C.3   9120  UNL9120     0.0000
   9168 C          13.7489   59.8284   72.9161 C.3   9121  UNL9121     0.0000
   9169 C          58.1834    6.8234   38.1701 C.3   9122  UNL9122     0.0000
   9170 C           8.4683   15.3939   82.6046 C.3   9123  UNL9123     0.0000
   9171 C          52.9028   51.2579   28.4816 C.3   9124  UNL9124     0.0000
   9172 C          72.9161   51.2579    8.4683 C.3   9125  UNL9125     0.0000
   9173 C          38.1701   15.3939   52.9028 C.3   9126  UNL9126     0.0000
   9174 C          82.6046    6.8234   13.7489 C.3   9127  UNL9127     0.0000
   9175 C          28.4816   59.8284   58.1834 C.3   9128  UNL9128     0.0000
   9176 C          52.9028   72.9161    6.8234 C.3   9129  UNL9129     0.0000
   9177 C           8.4683   38.1701   59.8284 C.3   9130  UNL9130     0.0000
   9178 C          58.1834   82.6046   51.2579 C.3   9131  UNL9131     0.0000
   9179 C          13.7489   28.4816   15.3939 C.3   9132  UNL9132     0.0000
   9180 C          51.2579   52.9028   28.4816 C.3   9133  UNL9133     0.0000
   9181 C          15.3939    8.4683   82.6046 C.3   9134  UNL9134     0.0000
   9182 C           6.8234   58.1834   38.1701 C.3   9135  UNL9135     0.0000
   9183 C          59.8284   13.7489   72.9161 C.3   9136  UNL9136     0.0000
   9184 C          73.4751   50.6989   35.9662 C.3   9137  UNL9137     0.0000
   9185 C          37.6111   15.9529   80.4007 C.3   9138  UNL9138     0.0000
   9186 C          29.0406   60.3874   30.6856 C.3   9139  UNL9139     0.0000
   9187 C          82.0456    6.2644   75.1201 C.3   9140  UNL9140     0.0000
   9188 C           6.2644   30.6856   37.6111 C.3   9141  UNL9141     0.0000
   9189 C          60.3874   75.1201   73.4751 C.3   9142  UNL9142     0.0000
   9190 C          15.9529   35.9662   82.0456 C.3   9143  UNL9143     0.0000
   9191 C          50.6989   80.4007   29.0406 C.3   9144  UNL9144     0.0000
   9192 C          75.1201   29.0406   15.9529 C.3   9145  UNL9145     0.0000
   9193 C          30.6856   82.0456   50.6989 C.3   9146  UNL9146     0.0000
   9194 C          80.4007   73.4751    6.2644 C.3   9147  UNL9147     0.0000
   9195 C          35.9662   37.6111   60.3874 C.3   9148  UNL9148     0.0000
   9196 C           7.2864   29.7578   35.2321 C.3   9149  UNL9149     0.0000
   9197 C          51.7209   36.8940   75.8541 C.3   9150  UNL9150     0.0000
   9198 C          14.9309   74.1923   31.4196 C.3   9151  UNL9151     0.0000
   9199 C          79.6666   59.3654   81.3285 C.3   9152  UNL9152     0.0000
   9200 C          35.2321    7.2864   29.7578 C.3   9153  UNL9153     0.0000
   9201 C          75.8541   51.7209   36.8940 C.3   9154  UNL9154     0.0000
   9202 C          31.4196   14.9309   74.1923 C.3   9155  UNL9155     0.0000
   9203 C          81.3285   79.6666   59.3654 C.3   9156  UNL9156     0.0000
   9204 C          29.7578   35.2321    7.2864 C.3   9157  UNL9157     0.0000
   9205 C          36.8940   75.8541   51.7209 C.3   9158  UNL9158     0.0000
   9206 C          74.1923   31.4196   14.9309 C.3   9159  UNL9159     0.0000
   9207 C          59.1112   81.5826   53.6369 C.3   9160  UNL9160     0.0000
   9208 C           7.5405   29.5036    9.2024 C.3   9161  UNL9161     0.0000
   9209 C          14.6767   73.9381   57.4494 C.3   9162  UNL9162     0.0000
   9210 C          51.9750   37.1481   13.0149 C.3   9163  UNL9163     0.0000
   9211 C          37.1481   13.0149   51.9750 C.3   9164  UNL9164     0.0000
   9212 C          73.9381   57.4494   14.6767 C.3   9165  UNL9165     0.0000
   9213 C          29.5036    9.2024    7.5405 C.3   9166  UNL9166     0.0000
   9214 C          81.5826   53.6369   59.1112 C.3   9167  UNL9167     0.0000
   9215 C          57.4494   14.6767   73.9381 C.3   9168  UNL9168     0.0000
   9216 C          13.0149   51.9750   37.1481 C.3   9169  UNL9169     0.0000
   9217 C          53.6369   59.1112   81.5826 C.3   9170  UNL9170     0.0000
   9218 C           9.2024    7.5405   29.5036 C.3   9171  UNL9171     0.0000
   9219 C          29.5036    7.5405    9.2024 C.3   9172  UNL9172     0.0000
   9220 C          81.5826   59.1112   53.6369 C.3   9173  UNL9173     0.0000
   9221 C          37.1481   51.9750   13.0149 C.3   9174  UNL9174     0.0000
   9222 C          73.9381   14.6767   57.4494 C.3   9175  UNL9175     0.0000
   9223 C           9.2024   29.5036    7.5405 C.3   9176  UNL9176     0.0000
   9224 C          53.6369   81.5826   59.1112 C.3   9177  UNL9177     0.0000
   9225 C          13.0149   37.1481   51.9750 C.3   9178  UNL9178     0.0000
   9226 C          57.4494   73.9381   14.6767 C.3   9179  UNL9179     0.0000
   9227 C           7.5405    9.2024   29.5036 C.3   9180  UNL9180     0.0000
   9228 C          59.1112   53.6369   81.5826 C.3   9181  UNL9181     0.0000
   9229 C          51.9750   13.0149   37.1481 C.3   9182  UNL9182     0.0000
   9230 C          14.6767   57.4494   73.9381 C.3   9183  UNL9183     0.0000
   9231 C          29.7578    7.2864   35.2321 C.3   9184  UNL9184     0.0000
   9232 C          81.3285   59.3654   79.6666 C.3   9185  UNL9185     0.0000
   9233 C          74.1923   14.9309   31.4196 C.3   9186  UNL9186     0.0000
   9234 C          36.8940   51.7209   75.8541 C.3   9187  UNL9187     0.0000
   9235 C          51.7209   75.8541   36.8940 C.3   9188  UNL9188     0.0000
   9236 C          14.9309   31.4196   74.1923 C.3   9189  UNL9189     0.0000
   9237 C          59.3654   79.6666   81.3285 C.3   9190  UNL9190     0.0000
   9238 C           7.2864   35.2321   29.7578 C.3   9191  UNL9191     0.0000
   9239 C          31.4196   74.1923   14.9309 C.3   9192  UNL9192     0.0000
   9240 C          75.8541   36.8940   51.7209 C.3   9193  UNL9193     0.0000
   9241 C          35.2321   29.7578    7.2864 C.3   9194  UNL9194     0.0000
   9242 C          79.6666   81.3285   59.3654 C.3   9195  UNL9195     0.0000
   9243 C          59.3654   36.8940   35.2321 C.3   9196  UNL9196     0.0000
   9244 C           7.2864   74.1923   79.6666 C.3   9197  UNL9197     0.0000
   9245 C          51.7209   81.3285   31.4196 C.3   9198  UNL9198     0.0000
   9246 C          14.9309   29.7578   75.8541 C.3   9199  UNL9199     0.0000
   9247 C          79.6666   14.9309   36.8940 C.3   9200  UNL9200     0.0000
   9248 C          35.2321   51.7209   74.1923 C.3   9201  UNL9201     0.0000
   9249 C          75.8541    7.2864   81.3285 C.3   9202  UNL9202     0.0000
   9250 C          31.4196   59.3654   29.7578 C.3   9203  UNL9203     0.0000
   9251 C          81.3285   35.2321   14.9309 C.3   9204  UNL9204     0.0000
   9252 C          29.7578   79.6666   51.7209 C.3   9205  UNL9205     0.0000
   9253 C          36.8940   31.4196    7.2864 C.3   9206  UNL9206     0.0000
   9254 C          74.1923   75.8541   59.3654 C.3   9207  UNL9207     0.0000
   9255 C          59.1112   37.1481    9.2024 C.3   9208  UNL9208     0.0000
   9256 C           7.5405   73.9381   53.6369 C.3   9209  UNL9209     0.0000
   9257 C          14.6767   29.5036   13.0149 C.3   9210  UNL9210     0.0000
   9258 C          51.9750   81.5826   57.4494 C.3   9211  UNL9211     0.0000
   9259 C          37.1481   57.4494    7.5405 C.3   9212  UNL9212     0.0000
   9260 C          73.9381   13.0149   59.1112 C.3   9213  UNL9213     0.0000
   9261 C          29.5036   53.6369   51.9750 C.3   9214  UNL9214     0.0000
   9262 C          81.5826    9.2024   14.6767 C.3   9215  UNL9215     0.0000
   9263 C          57.4494   59.1112   29.5036 C.3   9216  UNL9216     0.0000
   9264 C          13.0149    7.5405   81.5826 C.3   9217  UNL9217     0.0000
   9265 C          53.6369   14.6767   37.1481 C.3   9218  UNL9218     0.0000
   9266 C           9.2024   51.9750   73.9381 C.3   9219  UNL9219     0.0000
   9267 C          29.5036   51.9750   53.6369 C.3   9220  UNL9220     0.0000
   9268 C          81.5826   14.6767    9.2024 C.3   9221  UNL9221     0.0000
   9269 C          37.1481    7.5405   57.4494 C.3   9222  UNL9222     0.0000
   9270 C          73.9381   59.1112   13.0149 C.3   9223  UNL9223     0.0000
   9271 C           9.2024   73.9381   51.9750 C.3   9224  UNL9224     0.0000
   9272 C          53.6369   37.1481   14.6767 C.3   9225  UNL9225     0.0000
   9273 C          13.0149   81.5826    7.5405 C.3   9226  UNL9226     0.0000
   9274 C          57.4494   29.5036   59.1112 C.3   9227  UNL9227     0.0000
   9275 C           7.5405   53.6369   73.9381 C.3   9228  UNL9228     0.0000
   9276 C          59.1112    9.2024   37.1481 C.3   9229  UNL9229     0.0000
   9277 C          51.9750   57.4494   81.5826 C.3   9230  UNL9230     0.0000
   9278 C          14.6767   13.0149   29.5036 C.3   9231  UNL9231     0.0000
   9279 C          29.7578   51.7209   79.6666 C.3   9232  UNL9232     0.0000
   9280 C          81.3285   14.9309   35.2321 C.3   9233  UNL9233     0.0000
   9281 C          74.1923   59.3654   75.8541 C.3   9234  UNL9234     0.0000
   9282 C          36.8940    7.2864   31.4196 C.3   9235  UNL9235     0.0000
   9283 C          51.7209   31.4196   81.3285 C.3   9236  UNL9236     0.0000
   9284 C          14.9309   75.8541   29.7578 C.3   9237  UNL9237     0.0000
   9285 C          59.3654   35.2321   36.8940 C.3   9238  UNL9238     0.0000
   9286 C           7.2864   79.6666   74.1923 C.3   9239  UNL9239     0.0000
   9287 C          31.4196   29.7578   59.3654 C.3   9240  UNL9240     0.0000
   9288 C          75.8541   81.3285    7.2864 C.3   9241  UNL9241     0.0000
   9289 C          35.2321   74.1923   51.7209 C.3   9242  UNL9242     0.0000
   9290 C          79.6666   36.8940   14.9309 C.3   9243  UNL9243     0.0000
   9291 C          14.9309   81.3285   35.2321 C.3   9244  UNL9244     0.0000
   9292 C          51.7209   29.7578   79.6666 C.3   9245  UNL9245     0.0000
   9293 C           7.2864   36.8940   31.4196 C.3   9246  UNL9246     0.0000
   9294 C          59.3654   74.1923   75.8541 C.3   9247  UNL9247     0.0000
   9295 C          35.2321   59.3654   36.8940 C.3   9248  UNL9248     0.0000
   9296 C          79.6666    7.2864   74.1923 C.3   9249  UNL9249     0.0000
   9297 C          31.4196   51.7209   81.3285 C.3   9250  UNL9250     0.0000
   9298 C          75.8541   14.9309   29.7578 C.3   9251  UNL9251     0.0000
   9299 C          36.8940   79.6666   14.9309 C.3   9252  UNL9252     0.0000
   9300 C          74.1923   35.2321   51.7209 C.3   9253  UNL9253     0.0000
   9301 C          81.3285   75.8541    7.2864 C.3   9254  UNL9254     0.0000
   9302 C          29.7578   31.4196   59.3654 C.3   9255  UNL9255     0.0000
   9303 C          14.6767   81.5826    9.2024 C.3   9256  UNL9256     0.0000
   9304 C          51.9750   29.5036   53.6369 C.3   9257  UNL9257     0.0000
   9305 C          59.1112   73.9381   13.0149 C.3   9258  UNL9258     0.0000
   9306 C           7.5405   37.1481   57.4494 C.3   9259  UNL9259     0.0000
   9307 C          81.5826   13.0149    7.5405 C.3   9260  UNL9260     0.0000
   9308 C          29.5036   57.4494   59.1112 C.3   9261  UNL9261     0.0000
   9309 C          73.9381    9.2024   51.9750 C.3   9262  UNL9262     0.0000
   9310 C          37.1481   53.6369   14.6767 C.3   9263  UNL9263     0.0000
   9311 C          13.0149   14.6767   29.5036 C.3   9264  UNL9264     0.0000
   9312 C          57.4494   51.9750   81.5826 C.3   9265  UNL9265     0.0000
   9313 C           9.2024   59.1112   37.1481 C.3   9266  UNL9266     0.0000
   9314 C          53.6369    7.5405   73.9381 C.3   9267  UNL9267     0.0000
   9315 C          73.9381    7.5405   53.6369 C.3   9268  UNL9268     0.0000
   9316 C          37.1481   59.1112    9.2024 C.3   9269  UNL9269     0.0000
   9317 C          81.5826   51.9750   57.4494 C.3   9270  UNL9270     0.0000
   9318 C          29.5036   14.6767   13.0149 C.3   9271  UNL9271     0.0000
   9319 C          53.6369   29.5036   51.9750 C.3   9272  UNL9272     0.0000
   9320 C           9.2024   81.5826   14.6767 C.3   9273  UNL9273     0.0000
   9321 C          57.4494   37.1481    7.5405 C.3   9274  UNL9274     0.0000
   9322 C          13.0149   73.9381   59.1112 C.3   9275  UNL9275     0.0000
   9323 C          51.9750    9.2024   73.9381 C.3   9276  UNL9276     0.0000
   9324 C          14.6767   53.6369   37.1481 C.3   9277  UNL9277     0.0000
   9325 C           7.5405   13.0149   81.5826 C.3   9278  UNL9278     0.0000
   9326 C          59.1112   57.4494   29.5036 C.3   9279  UNL9279     0.0000
   9327 C          74.1923    7.2864   79.6666 C.3   9280  UNL9280     0.0000
   9328 C          36.8940   59.3654   35.2321 C.3   9281  UNL9281     0.0000
   9329 C          29.7578   14.9309   75.8541 C.3   9282  UNL9282     0.0000
   9330 C          81.3285   51.7209   31.4196 C.3   9283  UNL9283     0.0000
   9331 C           7.2864   75.8541   81.3285 C.3   9284  UNL9284     0.0000
   9332 C          59.3654   31.4196   29.7578 C.3   9285  UNL9285     0.0000
   9333 C          14.9309   79.6666   36.8940 C.3   9286  UNL9286     0.0000
   9334 C          51.7209   35.2321   74.1923 C.3   9287  UNL9287     0.0000
   9335 C          75.8541   74.1923   59.3654 C.3   9288  UNL9288     0.0000
   9336 C          31.4196   36.8940    7.2864 C.3   9289  UNL9289     0.0000
   9337 C          79.6666   29.7578   51.7209 C.3   9290  UNL9290     0.0000
   9338 C          35.2321   81.3285   14.9309 C.3   9291  UNL9291     0.0000
   9339 C          14.9309   36.8940   79.6666 C.3   9292  UNL9292     0.0000
   9340 C          51.7209   74.1923   35.2321 C.3   9293  UNL9293     0.0000
   9341 C           7.2864   81.3285   75.8541 C.3   9294  UNL9294     0.0000
   9342 C          59.3654   29.7578   31.4196 C.3   9295  UNL9295     0.0000
   9343 C          35.2321   14.9309   81.3285 C.3   9296  UNL9296     0.0000
   9344 C          79.6666   51.7209   29.7578 C.3   9297  UNL9297     0.0000
   9345 C          31.4196    7.2864   36.8940 C.3   9298  UNL9298     0.0000
   9346 C          75.8541   59.3654   74.1923 C.3   9299  UNL9299     0.0000
   9347 C          36.8940   35.2321   59.3654 C.3   9300  UNL9300     0.0000
   9348 C          74.1923   79.6666    7.2864 C.3   9301  UNL9301     0.0000
   9349 C          81.3285   31.4196   51.7209 C.3   9302  UNL9302     0.0000
   9350 C          29.7578   75.8541   14.9309 C.3   9303  UNL9303     0.0000
   9351 C          14.6767   37.1481   53.6369 C.3   9304  UNL9304     0.0000
   9352 C          51.9750   73.9381    9.2024 C.3   9305  UNL9305     0.0000
   9353 C          59.1112   29.5036   57.4494 C.3   9306  UNL9306     0.0000
   9354 C           7.5405   81.5826   13.0149 C.3   9307  UNL9307     0.0000
   9355 C          81.5826   57.4494   51.9750 C.3   9308  UNL9308     0.0000
   9356 C          29.5036   13.0149   14.6767 C.3   9309  UNL9309     0.0000
   9357 C          73.9381   53.6369    7.5405 C.3   9310  UNL9310     0.0000
   9358 C          37.1481    9.2024   59.1112 C.3   9311  UNL9311     0.0000
   9359 C          13.0149   59.1112   73.9381 C.3   9312  UNL9312     0.0000
   9360 C          57.4494    7.5405   37.1481 C.3   9313  UNL9313     0.0000
   9361 C           9.2024   14.6767   81.5826 C.3   9314  UNL9314     0.0000
   9362 C          53.6369   51.9750   29.5036 C.3   9315  UNL9315     0.0000
   9363 C          73.9381   51.9750    9.2024 C.3   9316  UNL9316     0.0000
   9364 C          37.1481   14.6767   53.6369 C.3   9317  UNL9317     0.0000
   9365 C          81.5826    7.5405   13.0149 C.3   9318  UNL9318     0.0000
   9366 C          29.5036   59.1112   57.4494 C.3   9319  UNL9319     0.0000
   9367 C          53.6369   73.9381    7.5405 C.3   9320  UNL9320     0.0000
   9368 C           9.2024   37.1481   59.1112 C.3   9321  UNL9321     0.0000
   9369 C          57.4494   81.5826   51.9750 C.3   9322  UNL9322     0.0000
   9370 C          13.0149   29.5036   14.6767 C.3   9323  UNL9323     0.0000
   9371 C          51.9750   53.6369   29.5036 C.3   9324  UNL9324     0.0000
   9372 C          14.6767    9.2024   81.5826 C.3   9325  UNL9325     0.0000
   9373 C           7.5405   57.4494   37.1481 C.3   9326  UNL9326     0.0000
   9374 C          59.1112   13.0149   73.9381 C.3   9327  UNL9327     0.0000
   9375 C          74.1923   51.7209   35.2321 C.3   9328  UNL9328     0.0000
   9376 C          36.8940   14.9309   79.6666 C.3   9329  UNL9329     0.0000
   9377 C          29.7578   59.3654   31.4196 C.3   9330  UNL9330     0.0000
   9378 C          81.3285    7.2864   75.8541 C.3   9331  UNL9331     0.0000
   9379 C           7.2864   31.4196   36.8940 C.3   9332  UNL9332     0.0000
   9380 C          59.3654   75.8541   74.1923 C.3   9333  UNL9333     0.0000
   9381 C          14.9309   35.2321   81.3285 C.3   9334  UNL9334     0.0000
   9382 C          51.7209   79.6666   29.7578 C.3   9335  UNL9335     0.0000
   9383 C          75.8541   29.7578   14.9309 C.3   9336  UNL9336     0.0000
   9384 C          31.4196   81.3285   51.7209 C.3   9337  UNL9337     0.0000
   9385 C          79.6666   74.1923    7.2864 C.3   9338  UNL9338     0.0000
   9386 C          35.2321   36.8940   59.3654 C.3   9339  UNL9339     0.0000
   9387 C          52.6940   23.4214   84.0443 C.3   9340  UNL9340     0.0000
   9388 C           8.2595   43.2303   27.0419 C.3   9341  UNL9341     0.0000
   9389 C          58.3923   67.8559   71.4764 C.3   9342  UNL9342     0.0000
   9390 C          39.6098   13.9578   87.6648 C.3   9343  UNL9343     0.0000
   9391 C          84.0443   52.6940   23.4214 C.3   9344  UNL9344     0.0000
   9392 C          27.0419    8.2595   43.2303 C.3   9345  UNL9345     0.0000
   9393 C          71.4764   58.3923   67.8559 C.3   9346  UNL9346     0.0000
   9394 C          87.6648   39.6098   13.9578 C.3   9347  UNL9347     0.0000
   9395 C          23.4214   84.0443   52.6940 C.3   9348  UNL9348     0.0000
   9396 C          43.2303   27.0419    8.2595 C.3   9349  UNL9349     0.0000
   9397 C          67.8559   71.4764   58.3923 C.3   9350  UNL9350     0.0000
   9398 C          65.4476   36.1750    4.8247 C.3   9351  UNL9351     0.0000
   9399 C           1.2042   74.9112   49.2592 C.3   9352  UNL9352     0.0000
   9400 C          21.0131   30.4767   17.3926 C.3   9353  UNL9353     0.0000
   9401 C          45.6387   80.6095   61.8270 C.3   9354  UNL9354     0.0000
   9402 C          80.6095   61.8270   45.6387 C.3   9355  UNL9355     0.0000
   9403 C          30.4767   17.3926   21.0131 C.3   9356  UNL9356     0.0000
   9404 C          74.9112   49.2592    1.2042 C.3   9357  UNL9357     0.0000
   9405 C          36.1750    4.8247   65.4476 C.3   9358  UNL9358     0.0000
   9406 C          17.3926   21.0131   30.4767 C.3   9359  UNL9359     0.0000
   9407 C          61.8270   45.6387   80.6095 C.3   9360  UNL9360     0.0000
   9408 C           4.8247   65.4476   36.1750 C.3   9361  UNL9361     0.0000
   9409 C          49.2592    1.2042   74.9112 C.3   9362  UNL9362     0.0000
   9410 C          74.9112    1.2042   49.2592 C.3   9363  UNL9363     0.0000
   9411 C          36.1750   65.4476    4.8247 C.3   9364  UNL9364     0.0000
   9412 C          80.6095   45.6387   61.8270 C.3   9365  UNL9365     0.0000
   9413 C          30.4767   21.0131   17.3926 C.3   9366  UNL9366     0.0000
   9414 C          49.2592   74.9112    1.2042 C.3   9367  UNL9367     0.0000
   9415 C           4.8247   36.1750   65.4476 C.3   9368  UNL9368     0.0000
   9416 C          61.8270   80.6095   45.6387 C.3   9369  UNL9369     0.0000
   9417 C          17.3926   30.4767   21.0131 C.3   9370  UNL9370     0.0000
   9418 C           1.2042   49.2592   74.9112 C.3   9371  UNL9371     0.0000
   9419 C          65.4476    4.8247   36.1750 C.3   9372  UNL9372     0.0000
   9420 C          45.6387   61.8270   80.6095 C.3   9373  UNL9373     0.0000
   9421 C          21.0131   17.3926   30.4767 C.3   9374  UNL9374     0.0000
   9422 C          23.4214   52.6940   84.0443 C.3   9375  UNL9375     0.0000
   9423 C          87.6648   13.9578   39.6098 C.3   9376  UNL9376     0.0000
   9424 C          67.8559   58.3923   71.4764 C.3   9377  UNL9377     0.0000
   9425 C          43.2303    8.2595   27.0419 C.3   9378  UNL9378     0.0000
   9426 C           8.2595   27.0419   43.2303 C.3   9379  UNL9379     0.0000
   9427 C          58.3923   71.4764   67.8559 C.3   9380  UNL9380     0.0000
   9428 C          13.9578   39.6098   87.6648 C.3   9381  UNL9381     0.0000
   9429 C          52.6940   84.0443   23.4214 C.3   9382  UNL9382     0.0000
   9430 C          71.4764   67.8559   58.3923 C.3   9383  UNL9383     0.0000
   9431 C          27.0419   43.2303    8.2595 C.3   9384  UNL9384     0.0000
   9432 C          84.0443   23.4214   52.6940 C.3   9385  UNL9385     0.0000
   9433 C          39.6098   87.6648   13.9578 C.3   9386  UNL9386     0.0000
   9434 C          13.9578   43.2303   84.0443 C.3   9387  UNL9387     0.0000
   9435 C          52.6940   67.8559   39.6098 C.3   9388  UNL9388     0.0000
   9436 C           8.2595   87.6648   71.4764 C.3   9389  UNL9389     0.0000
   9437 C          58.3923   23.4214   27.0419 C.3   9390  UNL9390     0.0000
   9438 C          39.6098   58.3923   43.2303 C.3   9391  UNL9391     0.0000
   9439 C          84.0443    8.2595   67.8559 C.3   9392  UNL9392     0.0000
   9440 C          27.0419   52.6940   87.6648 C.3   9393  UNL9393     0.0000
   9441 C          71.4764   13.9578   23.4214 C.3   9394  UNL9394     0.0000
   9442 C          87.6648   84.0443   58.3923 C.3   9395  UNL9395     0.0000
   9443 C          23.4214   39.6098    8.2595 C.3   9396  UNL9396     0.0000
   9444 C          43.2303   71.4764   52.6940 C.3   9397  UNL9397     0.0000
   9445 C          67.8559   27.0419   13.9578 C.3   9398  UNL9398     0.0000
   9446 C          65.4476   80.6095   49.2592 C.3   9399  UNL9399     0.0000
   9447 C           1.2042   30.4767    4.8247 C.3   9400  UNL9400     0.0000
   9448 C          21.0131   74.9112   61.8270 C.3   9401  UNL9401     0.0000
   9449 C          45.6387   36.1750   17.3926 C.3   9402  UNL9402     0.0000
   9450 C          80.6095   17.3926    1.2042 C.3   9403  UNL9403     0.0000
   9451 C          30.4767   61.8270   65.4476 C.3   9404  UNL9404     0.0000
   9452 C          74.9112    4.8247   45.6387 C.3   9405  UNL9405     0.0000
   9453 C          36.1750   49.2592   21.0131 C.3   9406  UNL9406     0.0000
   9454 C          17.3926   65.4476   74.9112 C.3   9407  UNL9407     0.0000
   9455 C          61.8270    1.2042   36.1750 C.3   9408  UNL9408     0.0000
   9456 C           4.8247   21.0131   80.6095 C.3   9409  UNL9409     0.0000
   9457 C          49.2592   45.6387   30.4767 C.3   9410  UNL9410     0.0000
   9458 C          74.9112   45.6387    4.8247 C.3   9411  UNL9411     0.0000
   9459 C          36.1750   21.0131   49.2592 C.3   9412  UNL9412     0.0000
   9460 C          80.6095    1.2042   17.3926 C.3   9413  UNL9413     0.0000
   9461 C          30.4767   65.4476   61.8270 C.3   9414  UNL9414     0.0000
   9462 C          49.2592   30.4767   45.6387 C.3   9415  UNL9415     0.0000
   9463 C           4.8247   80.6095   21.0131 C.3   9416  UNL9416     0.0000
   9464 C          61.8270   36.1750    1.2042 C.3   9417  UNL9417     0.0000
   9465 C          17.3926   74.9112   65.4476 C.3   9418  UNL9418     0.0000
   9466 C           1.2042    4.8247   30.4767 C.3   9419  UNL9419     0.0000
   9467 C          65.4476   49.2592   80.6095 C.3   9420  UNL9420     0.0000
   9468 C          45.6387   17.3926   36.1750 C.3   9421  UNL9421     0.0000
   9469 C          21.0131   61.8270   74.9112 C.3   9422  UNL9422     0.0000
   9470 C          23.4214    8.2595   39.6098 C.3   9423  UNL9423     0.0000
   9471 C          87.6648   58.3923   84.0443 C.3   9424  UNL9424     0.0000
   9472 C          67.8559   13.9578   27.0419 C.3   9425  UNL9425     0.0000
   9473 C          43.2303   52.6940   71.4764 C.3   9426  UNL9426     0.0000
   9474 C           8.2595   71.4764   87.6648 C.3   9427  UNL9427     0.0000
   9475 C          58.3923   27.0419   23.4214 C.3   9428  UNL9428     0.0000
   9476 C          13.9578   84.0443   43.2303 C.3   9429  UNL9429     0.0000
   9477 C          52.6940   39.6098   67.8559 C.3   9430  UNL9430     0.0000
   9478 C          71.4764   23.4214   13.9578 C.3   9431  UNL9431     0.0000
   9479 C          27.0419   87.6648   52.6940 C.3   9432  UNL9432     0.0000
   9480 C          84.0443   67.8559    8.2595 C.3   9433  UNL9433     0.0000
   9481 C          39.6098   43.2303   58.3923 C.3   9434  UNL9434     0.0000
   9482 C          58.3923   87.6648   84.0443 C.3   9435  UNL9435     0.0000
   9483 C           8.2595   23.4214   39.6098 C.3   9436  UNL9436     0.0000
   9484 C          52.6940   43.2303   71.4764 C.3   9437  UNL9437     0.0000
   9485 C          13.9578   67.8559   27.0419 C.3   9438  UNL9438     0.0000
   9486 C          84.0443   13.9578   43.2303 C.3   9439  UNL9439     0.0000
   9487 C          39.6098   52.6940   67.8559 C.3   9440  UNL9440     0.0000
   9488 C          71.4764    8.2595   87.6648 C.3   9441  UNL9441     0.0000
   9489 C          27.0419   58.3923   23.4214 C.3   9442  UNL9442     0.0000
   9490 C          43.2303   39.6098   58.3923 C.3   9443  UNL9443     0.0000
   9491 C          67.8559   84.0443    8.2595 C.3   9444  UNL9444     0.0000
   9492 C          87.6648   27.0419   52.6940 C.3   9445  UNL9445     0.0000
   9493 C          23.4214   71.4764   13.9578 C.3   9446  UNL9446     0.0000
   9494 C          21.0131   36.1750   49.2592 C.3   9447  UNL9447     0.0000
   9495 C          45.6387   74.9112    4.8247 C.3   9448  UNL9448     0.0000
   9496 C          65.4476   30.4767   61.8270 C.3   9449  UNL9449     0.0000
   9497 C           1.2042   80.6095   17.3926 C.3   9450  UNL9450     0.0000
   9498 C          36.1750   61.8270    1.2042 C.3   9451  UNL9451     0.0000
   9499 C          74.9112   17.3926   65.4476 C.3   9452  UNL9452     0.0000
   9500 C          30.4767   49.2592   45.6387 C.3   9453  UNL9453     0.0000
   9501 C          80.6095    4.8247   21.0131 C.3   9454  UNL9454     0.0000
   9502 C          61.8270   21.0131   74.9112 C.3   9455  UNL9455     0.0000
   9503 C          17.3926   45.6387   36.1750 C.3   9456  UNL9456     0.0000
   9504 C          49.2592   65.4476   80.6095 C.3   9457  UNL9457     0.0000
   9505 C           4.8247    1.2042   30.4767 C.3   9458  UNL9458     0.0000
   9506 C          30.4767    1.2042    4.8247 C.3   9459  UNL9459     0.0000
   9507 C          80.6095   65.4476   49.2592 C.3   9460  UNL9460     0.0000
   9508 C          36.1750   45.6387   17.3926 C.3   9461  UNL9461     0.0000
   9509 C          74.9112   21.0131   61.8270 C.3   9462  UNL9462     0.0000
   9510 C           4.8247   74.9112   45.6387 C.3   9463  UNL9463     0.0000
   9511 C          49.2592   36.1750   21.0131 C.3   9464  UNL9464     0.0000
   9512 C          17.3926   80.6095    1.2042 C.3   9465  UNL9465     0.0000
   9513 C          61.8270   30.4767   65.4476 C.3   9466  UNL9466     0.0000
   9514 C          45.6387   49.2592   30.4767 C.3   9467  UNL9467     0.0000
   9515 C          21.0131    4.8247   80.6095 C.3   9468  UNL9468     0.0000
   9516 C           1.2042   61.8270   36.1750 C.3   9469  UNL9469     0.0000
   9517 C          65.4476   17.3926   74.9112 C.3   9470  UNL9470     0.0000
   9518 C          67.8559   52.6940   39.6098 C.3   9471  UNL9471     0.0000
   9519 C          43.2303   13.9578   84.0443 C.3   9472  UNL9472     0.0000
   9520 C          23.4214   58.3923   27.0419 C.3   9473  UNL9473     0.0000
   9521 C          87.6648    8.2595   71.4764 C.3   9474  UNL9474     0.0000
   9522 C          52.6940   27.0419   87.6648 C.3   9475  UNL9475     0.0000
   9523 C          13.9578   71.4764   23.4214 C.3   9476  UNL9476     0.0000
   9524 C          58.3923   39.6098   43.2303 C.3   9477  UNL9477     0.0000
   9525 C           8.2595   84.0443   67.8559 C.3   9478  UNL9478     0.0000
   9526 C          27.0419   67.8559   13.9578 C.3   9479  UNL9479     0.0000
   9527 C          71.4764   43.2303   52.6940 C.3   9480  UNL9480     0.0000
   9528 C          39.6098   23.4214    8.2595 C.3   9481  UNL9481     0.0000
   9529 C          84.0443   87.6648   58.3923 C.3   9482  UNL9482     0.0000
   9530 C          58.3923   43.2303   39.6098 C.3   9483  UNL9483     0.0000
   9531 C           8.2595   67.8559   84.0443 C.3   9484  UNL9484     0.0000
   9532 C          52.6940   87.6648   27.0419 C.3   9485  UNL9485     0.0000
   9533 C          13.9578   23.4214   71.4764 C.3   9486  UNL9486     0.0000
   9534 C          84.0443   58.3923   87.6648 C.3   9487  UNL9487     0.0000
   9535 C          39.6098    8.2595   23.4214 C.3   9488  UNL9488     0.0000
   9536 C          71.4764   52.6940   43.2303 C.3   9489  UNL9489     0.0000
   9537 C          27.0419   13.9578   67.8559 C.3   9490  UNL9490     0.0000
   9538 C          43.2303   84.0443   13.9578 C.3   9491  UNL9491     0.0000
   9539 C          67.8559   39.6098   52.6940 C.3   9492  UNL9492     0.0000
   9540 C          87.6648   71.4764    8.2595 C.3   9493  UNL9493     0.0000
   9541 C          23.4214   27.0419   58.3923 C.3   9494  UNL9494     0.0000
   9542 C          21.0131   80.6095    4.8247 C.3   9495  UNL9495     0.0000
   9543 C          45.6387   30.4767   49.2592 C.3   9496  UNL9496     0.0000
   9544 C          65.4476   74.9112   17.3926 C.3   9497  UNL9497     0.0000
   9545 C           1.2042   36.1750   61.8270 C.3   9498  UNL9498     0.0000
   9546 C          36.1750   17.3926   45.6387 C.3   9499  UNL9499     0.0000
   9547 C          74.9112   61.8270   21.0131 C.3   9500  UNL9500     0.0000
   9548 C          30.4767    4.8247    1.2042 C.3   9501  UNL9501     0.0000
   9549 C          80.6095   49.2592   65.4476 C.3   9502  UNL9502     0.0000
   9550 C          61.8270   65.4476   30.4767 C.3   9503  UNL9503     0.0000
   9551 C          17.3926    1.2042   80.6095 C.3   9504  UNL9504     0.0000
   9552 C          49.2592   21.0131   36.1750 C.3   9505  UNL9505     0.0000
   9553 C           4.8247   45.6387   74.9112 C.3   9506  UNL9506     0.0000
   9554 C          30.4767   45.6387   49.2592 C.3   9507  UNL9507     0.0000
   9555 C          80.6095   21.0131    4.8247 C.3   9508  UNL9508     0.0000
   9556 C          36.1750    1.2042   61.8270 C.3   9509  UNL9509     0.0000
   9557 C          74.9112   65.4476   17.3926 C.3   9510  UNL9510     0.0000
   9558 C           4.8247   30.4767    1.2042 C.3   9511  UNL9511     0.0000
   9559 C          49.2592   80.6095   65.4476 C.3   9512  UNL9512     0.0000
   9560 C          17.3926   36.1750   45.6387 C.3   9513  UNL9513     0.0000
   9561 C          61.8270   74.9112   21.0131 C.3   9514  UNL9514     0.0000
   9562 C          45.6387    4.8247   74.9112 C.3   9515  UNL9515     0.0000
   9563 C          21.0131   49.2592   36.1750 C.3   9516  UNL9516     0.0000
   9564 C           1.2042   17.3926   80.6095 C.3   9517  UNL9517     0.0000
   9565 C          65.4476   61.8270   30.4767 C.3   9518  UNL9518     0.0000
   9566 C          67.8559    8.2595   84.0443 C.3   9519  UNL9519     0.0000
   9567 C          43.2303   58.3923   39.6098 C.3   9520  UNL9520     0.0000
   9568 C          23.4214   13.9578   71.4764 C.3   9521  UNL9521     0.0000
   9569 C          87.6648   52.6940   27.0419 C.3   9522  UNL9522     0.0000
   9570 C          52.6940   71.4764   43.2303 C.3   9523  UNL9523     0.0000
   9571 C          13.9578   27.0419   67.8559 C.3   9524  UNL9524     0.0000
   9572 C          58.3923   84.0443   87.6648 C.3   9525  UNL9525     0.0000
   9573 C           8.2595   39.6098   23.4214 C.3   9526  UNL9526     0.0000
   9574 C          27.0419   23.4214   58.3923 C.3   9527  UNL9527     0.0000
   9575 C          71.4764   87.6648    8.2595 C.3   9528  UNL9528     0.0000
   9576 C          39.6098   67.8559   52.6940 C.3   9529  UNL9529     0.0000
   9577 C          84.0443   43.2303   13.9578 C.3   9530  UNL9530     0.0000
   9578 C          50.5398   24.4070   83.5511 C.3   9531  UNL9531     0.0000
   9579 C           6.1053   42.2448   27.5352 C.3   9532  UNL9532     0.0000
   9580 C          60.5464   68.8415   71.9697 C.3   9533  UNL9533     0.0000
   9581 C          39.1166   16.1119   86.6793 C.3   9534  UNL9534     0.0000
   9582 C          83.5511   50.5398   24.4070 C.3   9535  UNL9535     0.0000
   9583 C          27.5352    6.1053   42.2448 C.3   9536  UNL9536     0.0000
   9584 C          71.9697   60.5464   68.8415 C.3   9537  UNL9537     0.0000
   9585 C          86.6793   39.1166   16.1119 C.3   9538  UNL9538     0.0000
   9586 C          24.4070   83.5511   50.5398 C.3   9539  UNL9539     0.0000
   9587 C          42.2448   27.5352    6.1053 C.3   9540  UNL9540     0.0000
   9588 C          68.8415   71.9697   60.5464 C.3   9541  UNL9541     0.0000
   9589 C          64.4620   38.3292    5.3179 C.3   9542  UNL9542     0.0000
   9590 C           2.1897   72.7570   49.7524 C.3   9543  UNL9543     0.0000
   9591 C          20.0275   28.3225   16.8993 C.3   9544  UNL9544     0.0000
   9592 C          46.6242   82.7637   61.3338 C.3   9545  UNL9545     0.0000
   9593 C          82.7637   61.3338   46.6242 C.3   9546  UNL9546     0.0000
   9594 C          28.3225   16.8993   20.0275 C.3   9547  UNL9547     0.0000
   9595 C          72.7570   49.7524    2.1897 C.3   9548  UNL9548     0.0000
   9596 C          38.3292    5.3179   64.4620 C.3   9549  UNL9549     0.0000
   9597 C          16.8993   20.0275   28.3225 C.3   9550  UNL9550     0.0000
   9598 C          61.3338   46.6242   82.7637 C.3   9551  UNL9551     0.0000
   9599 C           5.3179   64.4620   38.3292 C.3   9552  UNL9552     0.0000
   9600 C          49.7524    2.1897   72.7570 C.3   9553  UNL9553     0.0000
   9601 C          72.7570    2.1897   49.7524 C.3   9554  UNL9554     0.0000
   9602 C          38.3292   64.4620    5.3179 C.3   9555  UNL9555     0.0000
   9603 C          82.7637   46.6242   61.3338 C.3   9556  UNL9556     0.0000
   9604 C          28.3225   20.0275   16.8993 C.3   9557  UNL9557     0.0000
   9605 C          49.7524   72.7570    2.1897 C.3   9558  UNL9558     0.0000
   9606 C           5.3179   38.3292   64.4620 C.3   9559  UNL9559     0.0000
   9607 C          61.3338   82.7637   46.6242 C.3   9560  UNL9560     0.0000
   9608 C          16.8993   28.3225   20.0275 C.3   9561  UNL9561     0.0000
   9609 C           2.1897   49.7524   72.7570 C.3   9562  UNL9562     0.0000
   9610 C          64.4620    5.3179   38.3292 C.3   9563  UNL9563     0.0000
   9611 C          46.6242   61.3338   82.7637 C.3   9564  UNL9564     0.0000
   9612 C          20.0275   16.8993   28.3225 C.3   9565  UNL9565     0.0000
   9613 C          24.4070   50.5398   83.5511 C.3   9566  UNL9566     0.0000
   9614 C          86.6793   16.1119   39.1166 C.3   9567  UNL9567     0.0000
   9615 C          68.8415   60.5464   71.9697 C.3   9568  UNL9568     0.0000
   9616 C          42.2448    6.1053   27.5352 C.3   9569  UNL9569     0.0000
   9617 C           6.1053   27.5352   42.2448 C.3   9570  UNL9570     0.0000
   9618 C          60.5464   71.9697   68.8415 C.3   9571  UNL9571     0.0000
   9619 C          16.1119   39.1166   86.6793 C.3   9572  UNL9572     0.0000
   9620 C          50.5398   83.5511   24.4070 C.3   9573  UNL9573     0.0000
   9621 C          71.9697   68.8415   60.5464 C.3   9574  UNL9574     0.0000
   9622 C          27.5352   42.2448    6.1053 C.3   9575  UNL9575     0.0000
   9623 C          83.5511   24.4070   50.5398 C.3   9576  UNL9576     0.0000
   9624 C          39.1166   86.6793   16.1119 C.3   9577  UNL9577     0.0000
   9625 C          16.1119   42.2448   83.5511 C.3   9578  UNL9578     0.0000
   9626 C          50.5398   68.8415   39.1166 C.3   9579  UNL9579     0.0000
   9627 C           6.1053   86.6793   71.9697 C.3   9580  UNL9580     0.0000
   9628 C          60.5464   24.4070   27.5352 C.3   9581  UNL9581     0.0000
   9629 C          39.1166   60.5464   42.2448 C.3   9582  UNL9582     0.0000
   9630 C          83.5511    6.1053   68.8415 C.3   9583  UNL9583     0.0000
   9631 C          27.5352   50.5398   86.6793 C.3   9584  UNL9584     0.0000
   9632 C          71.9697   16.1119   24.4070 C.3   9585  UNL9585     0.0000
   9633 C          86.6793   83.5511   60.5464 C.3   9586  UNL9586     0.0000
   9634 C          24.4070   39.1166    6.1053 C.3   9587  UNL9587     0.0000
   9635 C          42.2448   71.9697   50.5398 C.3   9588  UNL9588     0.0000
   9636 C          68.8415   27.5352   16.1119 C.3   9589  UNL9589     0.0000
   9637 C          64.4620   82.7637   49.7524 C.3   9590  UNL9590     0.0000
   9638 C           2.1897   28.3225    5.3179 C.3   9591  UNL9591     0.0000
   9639 C          20.0275   72.7570   61.3338 C.3   9592  UNL9592     0.0000
   9640 C          46.6242   38.3292   16.8993 C.3   9593  UNL9593     0.0000
   9641 C          82.7637   16.8993    2.1897 C.3   9594  UNL9594     0.0000
   9642 C          28.3225   61.3338   64.4620 C.3   9595  UNL9595     0.0000
   9643 C          72.7570    5.3179   46.6242 C.3   9596  UNL9596     0.0000
   9644 C          38.3292   49.7524   20.0275 C.3   9597  UNL9597     0.0000
   9645 C          16.8993   64.4620   72.7570 C.3   9598  UNL9598     0.0000
   9646 C          61.3338    2.1897   38.3292 C.3   9599  UNL9599     0.0000
   9647 C           5.3179   20.0275   82.7637 C.3   9600  UNL9600     0.0000
   9648 C          49.7524   46.6242   28.3225 C.3   9601  UNL9601     0.0000
   9649 C          72.7570   46.6242    5.3179 C.3   9602  UNL9602     0.0000
   9650 C          38.3292   20.0275   49.7524 C.3   9603  UNL9603     0.0000
   9651 C          82.7637    2.1897   16.8993 C.3   9604  UNL9604     0.0000
   9652 C          28.3225   64.4620   61.3338 C.3   9605  UNL9605     0.0000
   9653 C          49.7524   28.3225   46.6242 C.3   9606  UNL9606     0.0000
   9654 C           5.3179   82.7637   20.0275 C.3   9607  UNL9607     0.0000
   9655 C          61.3338   38.3292    2.1897 C.3   9608  UNL9608     0.0000
   9656 C          16.8993   72.7570   64.4620 C.3   9609  UNL9609     0.0000
   9657 C           2.1897    5.3179   28.3225 C.3   9610  UNL9610     0.0000
   9658 C          64.4620   49.7524   82.7637 C.3   9611  UNL9611     0.0000
   9659 C          46.6242   16.8993   38.3292 C.3   9612  UNL9612     0.0000
   9660 C          20.0275   61.3338   72.7570 C.3   9613  UNL9613     0.0000
   9661 C          24.4070    6.1053   39.1166 C.3   9614  UNL9614     0.0000
   9662 C          86.6793   60.5464   83.5511 C.3   9615  UNL9615     0.0000
   9663 C          68.8415   16.1119   27.5352 C.3   9616  UNL9616     0.0000
   9664 C          42.2448   50.5398   71.9697 C.3   9617  UNL9617     0.0000
   9665 C           6.1053   71.9697   86.6793 C.3   9618  UNL9618     0.0000
   9666 C          60.5464   27.5352   24.4070 C.3   9619  UNL9619     0.0000
   9667 C          16.1119   83.5511   42.2448 C.3   9620  UNL9620     0.0000
   9668 C          50.5398   39.1166   68.8415 C.3   9621  UNL9621     0.0000
   9669 C          71.9697   24.4070   16.1119 C.3   9622  UNL9622     0.0000
   9670 C          27.5352   86.6793   50.5398 C.3   9623  UNL9623     0.0000
   9671 C          83.5511   68.8415    6.1053 C.3   9624  UNL9624     0.0000
   9672 C          39.1166   42.2448   60.5464 C.3   9625  UNL9625     0.0000
   9673 C          60.5464   86.6793   83.5511 C.3   9626  UNL9626     0.0000
   9674 C           6.1053   24.4070   39.1166 C.3   9627  UNL9627     0.0000
   9675 C          50.5398   42.2448   71.9697 C.3   9628  UNL9628     0.0000
   9676 C          16.1119   68.8415   27.5352 C.3   9629  UNL9629     0.0000
   9677 C          83.5511   16.1119   42.2448 C.3   9630  UNL9630     0.0000
   9678 C          39.1166   50.5398   68.8415 C.3   9631  UNL9631     0.0000
   9679 C          71.9697    6.1053   86.6793 C.3   9632  UNL9632     0.0000
   9680 C          27.5352   60.5464   24.4070 C.3   9633  UNL9633     0.0000
   9681 C          42.2448   39.1166   60.5464 C.3   9634  UNL9634     0.0000
   9682 C          68.8415   83.5511    6.1053 C.3   9635  UNL9635     0.0000
   9683 C          86.6793   27.5352   50.5398 C.3   9636  UNL9636     0.0000
   9684 C          24.4070   71.9697   16.1119 C.3   9637  UNL9637     0.0000
   9685 C          20.0275   38.3292   49.7524 C.3   9638  UNL9638     0.0000
   9686 C          46.6242   72.7570    5.3179 C.3   9639  UNL9639     0.0000
   9687 C          64.4620   28.3225   61.3338 C.3   9640  UNL9640     0.0000
   9688 C           2.1897   82.7637   16.8993 C.3   9641  UNL9641     0.0000
   9689 C          38.3292   61.3338    2.1897 C.3   9642  UNL9642     0.0000
   9690 C          72.7570   16.8993   64.4620 C.3   9643  UNL9643     0.0000
   9691 C          28.3225   49.7524   46.6242 C.3   9644  UNL9644     0.0000
   9692 C          82.7637    5.3179   20.0275 C.3   9645  UNL9645     0.0000
   9693 C          61.3338   20.0275   72.7570 C.3   9646  UNL9646     0.0000
   9694 C          16.8993   46.6242   38.3292 C.3   9647  UNL9647     0.0000
   9695 C          49.7524   64.4620   82.7637 C.3   9648  UNL9648     0.0000
   9696 C           5.3179    2.1897   28.3225 C.3   9649  UNL9649     0.0000
   9697 C          28.3225    2.1897    5.3179 C.3   9650  UNL9650     0.0000
   9698 C          82.7637   64.4620   49.7524 C.3   9651  UNL9651     0.0000
   9699 C          38.3292   46.6242   16.8993 C.3   9652  UNL9652     0.0000
   9700 C          72.7570   20.0275   61.3338 C.3   9653  UNL9653     0.0000
   9701 C           5.3179   72.7570   46.6242 C.3   9654  UNL9654     0.0000
   9702 C          49.7524   38.3292   20.0275 C.3   9655  UNL9655     0.0000
   9703 C          16.8993   82.7637    2.1897 C.3   9656  UNL9656     0.0000
   9704 C          61.3338   28.3225   64.4620 C.3   9657  UNL9657     0.0000
   9705 C          46.6242   49.7524   28.3225 C.3   9658  UNL9658     0.0000
   9706 C          20.0275    5.3179   82.7637 C.3   9659  UNL9659     0.0000
   9707 C           2.1897   61.3338   38.3292 C.3   9660  UNL9660     0.0000
   9708 C          64.4620   16.8993   72.7570 C.3   9661  UNL9661     0.0000
   9709 C          68.8415   50.5398   39.1166 C.3   9662  UNL9662     0.0000
   9710 C          42.2448   16.1119   83.5511 C.3   9663  UNL9663     0.0000
   9711 C          24.4070   60.5464   27.5352 C.3   9664  UNL9664     0.0000
   9712 C          86.6793    6.1053   71.9697 C.3   9665  UNL9665     0.0000
   9713 C          50.5398   27.5352   86.6793 C.3   9666  UNL9666     0.0000
   9714 C          16.1119   71.9697   24.4070 C.3   9667  UNL9667     0.0000
   9715 C          60.5464   39.1166   42.2448 C.3   9668  UNL9668     0.0000
   9716 C           6.1053   83.5511   68.8415 C.3   9669  UNL9669     0.0000
   9717 C          27.5352   68.8415   16.1119 C.3   9670  UNL9670     0.0000
   9718 C          71.9697   42.2448   50.5398 C.3   9671  UNL9671     0.0000
   9719 C          39.1166   24.4070    6.1053 C.3   9672  UNL9672     0.0000
   9720 C          83.5511   86.6793   60.5464 C.3   9673  UNL9673     0.0000
   9721 C          60.5464   42.2448   39.1166 C.3   9674  UNL9674     0.0000
   9722 C           6.1053   68.8415   83.5511 C.3   9675  UNL9675     0.0000
   9723 C          50.5398   86.6793   27.5352 C.3   9676  UNL9676     0.0000
   9724 C          16.1119   24.4070   71.9697 C.3   9677  UNL9677     0.0000
   9725 C          83.5511   60.5464   86.6793 C.3   9678  UNL9678     0.0000
   9726 C          39.1166    6.1053   24.4070 C.3   9679  UNL9679     0.0000
   9727 C          71.9697   50.5398   42.2448 C.3   9680  UNL9680     0.0000
   9728 C          27.5352   16.1119   68.8415 C.3   9681  UNL9681     0.0000
   9729 C          42.2448   83.5511   16.1119 C.3   9682  UNL9682     0.0000
   9730 C          68.8415   39.1166   50.5398 C.3   9683  UNL9683     0.0000
   9731 C          86.6793   71.9697    6.1053 C.3   9684  UNL9684     0.0000
   9732 C          24.4070   27.5352   60.5464 C.3   9685  UNL9685     0.0000
   9733 C          20.0275   82.7637    5.3179 C.3   9686  UNL9686     0.0000
   9734 C          46.6242   28.3225   49.7524 C.3   9687  UNL9687     0.0000
   9735 C          64.4620   72.7570   16.8993 C.3   9688  UNL9688     0.0000
   9736 C           2.1897   38.3292   61.3338 C.3   9689  UNL9689     0.0000
   9737 C          38.3292   16.8993   46.6242 C.3   9690  UNL9690     0.0000
   9738 C          72.7570   61.3338   20.0275 C.3   9691  UNL9691     0.0000
   9739 C          28.3225    5.3179    2.1897 C.3   9692  UNL9692     0.0000
   9740 C          82.7637   49.7524   64.4620 C.3   9693  UNL9693     0.0000
   9741 C          61.3338   64.4620   28.3225 C.3   9694  UNL9694     0.0000
   9742 C          16.8993    2.1897   82.7637 C.3   9695  UNL9695     0.0000
   9743 C          49.7524   20.0275   38.3292 C.3   9696  UNL9696     0.0000
   9744 C           5.3179   46.6242   72.7570 C.3   9697  UNL9697     0.0000
   9745 C          28.3225   46.6242   49.7524 C.3   9698  UNL9698     0.0000
   9746 C          82.7637   20.0275    5.3179 C.3   9699  UNL9699     0.0000
   9747 C          38.3292    2.1897   61.3338 C.3   9700  UNL9700     0.0000
   9748 C          72.7570   64.4620   16.8993 C.3   9701  UNL9701     0.0000
   9749 C           5.3179   28.3225    2.1897 C.3   9702  UNL9702     0.0000
   9750 C          49.7524   82.7637   64.4620 C.3   9703  UNL9703     0.0000
   9751 C          16.8993   38.3292   46.6242 C.3   9704  UNL9704     0.0000
   9752 C          61.3338   72.7570   20.0275 C.3   9705  UNL9705     0.0000
   9753 C          46.6242    5.3179   72.7570 C.3   9706  UNL9706     0.0000
   9754 C          20.0275   49.7524   38.3292 C.3   9707  UNL9707     0.0000
   9755 C           2.1897   16.8993   82.7637 C.3   9708  UNL9708     0.0000
   9756 C          64.4620   61.3338   28.3225 C.3   9709  UNL9709     0.0000
   9757 C          68.8415    6.1053   83.5511 C.3   9710  UNL9710     0.0000
   9758 C          42.2448   60.5464   39.1166 C.3   9711  UNL9711     0.0000
   9759 C          24.4070   16.1119   71.9697 C.3   9712  UNL9712     0.0000
   9760 C          86.6793   50.5398   27.5352 C.3   9713  UNL9713     0.0000
   9761 C          50.5398   71.9697   42.2448 C.3   9714  UNL9714     0.0000
   9762 C          16.1119   27.5352   68.8415 C.3   9715  UNL9715     0.0000
   9763 C          60.5464   83.5511   86.6793 C.3   9716  UNL9716     0.0000
   9764 C           6.1053   39.1166   24.4070 C.3   9717  UNL9717     0.0000
   9765 C          27.5352   24.4070   60.5464 C.3   9718  UNL9718     0.0000
   9766 C          71.9697   86.6793    6.1053 C.3   9719  UNL9719     0.0000
   9767 C          39.1166   68.8415   50.5398 C.3   9720  UNL9720     0.0000
   9768 C          83.5511   42.2448   16.1119 C.3   9721  UNL9721     0.0000
   9769 C          51.7315   23.8231   83.1085 C.3   9722  UNL9722     0.0000
   9770 C           7.2970   42.8286   27.9777 C.3   9723  UNL9723     0.0000
   9771 C          59.3547   68.2576   72.4122 C.3   9724  UNL9724     0.0000
   9772 C          38.6740   14.9202   87.2631 C.3   9725  UNL9725     0.0000
   9773 C          83.1085   51.7315   23.8231 C.3   9726  UNL9726     0.0000
   9774 C          27.9777    7.2970   42.8286 C.3   9727  UNL9727     0.0000
   9775 C          72.4122   59.3547   68.2576 C.3   9728  UNL9728     0.0000
   9776 C          87.2631   38.6740   14.9202 C.3   9729  UNL9729     0.0000
   9777 C          23.8231   83.1085   51.7315 C.3   9730  UNL9730     0.0000
   9778 C          42.8286   27.9777    7.2970 C.3   9731  UNL9731     0.0000
   9779 C          68.2576   72.4122   59.3547 C.3   9732  UNL9732     0.0000
   9780 C          65.0459   37.1375    5.7605 C.3   9733  UNL9733     0.0000
   9781 C           1.6059   73.9488   50.1950 C.3   9734  UNL9734     0.0000
   9782 C          20.6114   29.5143   16.4568 C.3   9735  UNL9735     0.0000
   9783 C          46.0404   81.5720   60.8913 C.3   9736  UNL9736     0.0000
   9784 C          81.5720   60.8913   46.0404 C.3   9737  UNL9737     0.0000
   9785 C          29.5143   16.4568   20.6114 C.3   9738  UNL9738     0.0000
   9786 C          73.9488   50.1950    1.6059 C.3   9739  UNL9739     0.0000
   9787 C          37.1375    5.7605   65.0459 C.3   9740  UNL9740     0.0000
   9788 C          16.4568   20.6114   29.5143 C.3   9741  UNL9741     0.0000
   9789 C          60.8913   46.0404   81.5720 C.3   9742  UNL9742     0.0000
   9790 C           5.7605   65.0459   37.1375 C.3   9743  UNL9743     0.0000
   9791 C          50.1950    1.6059   73.9488 C.3   9744  UNL9744     0.0000
   9792 C          73.9488    1.6059   50.1950 C.3   9745  UNL9745     0.0000
   9793 C          37.1375   65.0459    5.7605 C.3   9746  UNL9746     0.0000
   9794 C          81.5720   46.0404   60.8913 C.3   9747  UNL9747     0.0000
   9795 C          29.5143   20.6114   16.4568 C.3   9748  UNL9748     0.0000
   9796 C          50.1950   73.9488    1.6059 C.3   9749  UNL9749     0.0000
   9797 C           5.7605   37.1375   65.0459 C.3   9750  UNL9750     0.0000
   9798 C          60.8913   81.5720   46.0404 C.3   9751  UNL9751     0.0000
   9799 C          16.4568   29.5143   20.6114 C.3   9752  UNL9752     0.0000
   9800 C           1.6059   50.1950   73.9488 C.3   9753  UNL9753     0.0000
   9801 C          65.0459    5.7605   37.1375 C.3   9754  UNL9754     0.0000
   9802 C          46.0404   60.8913   81.5720 C.3   9755  UNL9755     0.0000
   9803 C          20.6114   16.4568   29.5143 C.3   9756  UNL9756     0.0000
   9804 C          23.8231   51.7315   83.1085 C.3   9757  UNL9757     0.0000
   9805 C          87.2631   14.9202   38.6740 C.3   9758  UNL9758     0.0000
   9806 C          68.2576   59.3547   72.4122 C.3   9759  UNL9759     0.0000
   9807 C          42.8286    7.2970   27.9777 C.3   9760  UNL9760     0.0000
   9808 C           7.2970   27.9777   42.8286 C.3   9761  UNL9761     0.0000
   9809 C          59.3547   72.4122   68.2576 C.3   9762  UNL9762     0.0000
   9810 C          14.9202   38.6740   87.2631 C.3   9763  UNL9763     0.0000
   9811 C          51.7315   83.1085   23.8231 C.3   9764  UNL9764     0.0000
   9812 C          72.4122   68.2576   59.3547 C.3   9765  UNL9765     0.0000
   9813 C          27.9777   42.8286    7.2970 C.3   9766  UNL9766     0.0000
   9814 C          83.1085   23.8231   51.7315 C.3   9767  UNL9767     0.0000
   9815 C          38.6740   87.2631   14.9202 C.3   9768  UNL9768     0.0000
   9816 C          14.9202   42.8286   83.1085 C.3   9769  UNL9769     0.0000
   9817 C          51.7315   68.2576   38.6740 C.3   9770  UNL9770     0.0000
   9818 C           7.2970   87.2631   72.4122 C.3   9771  UNL9771     0.0000
   9819 C          59.3547   23.8231   27.9777 C.3   9772  UNL9772     0.0000
   9820 C          38.6740   59.3547   42.8286 C.3   9773  UNL9773     0.0000
   9821 C          83.1085    7.2970   68.2576 C.3   9774  UNL9774     0.0000
   9822 C          27.9777   51.7315   87.2631 C.3   9775  UNL9775     0.0000
   9823 C          72.4122   14.9202   23.8231 C.3   9776  UNL9776     0.0000
   9824 C          87.2631   83.1085   59.3547 C.3   9777  UNL9777     0.0000
   9825 C          23.8231   38.6740    7.2970 C.3   9778  UNL9778     0.0000
   9826 C          42.8286   72.4122   51.7315 C.3   9779  UNL9779     0.0000
   9827 C          68.2576   27.9777   14.9202 C.3   9780  UNL9780     0.0000
   9828 C          65.0459   81.5720   50.1950 C.3   9781  UNL9781     0.0000
   9829 C           1.6059   29.5143    5.7605 C.3   9782  UNL9782     0.0000
   9830 C          20.6114   73.9488   60.8913 C.3   9783  UNL9783     0.0000
   9831 C          46.0404   37.1375   16.4568 C.3   9784  UNL9784     0.0000
   9832 C          81.5720   16.4568    1.6059 C.3   9785  UNL9785     0.0000
   9833 C          29.5143   60.8913   65.0459 C.3   9786  UNL9786     0.0000
   9834 C          73.9488    5.7605   46.0404 C.3   9787  UNL9787     0.0000
   9835 C          37.1375   50.1950   20.6114 C.3   9788  UNL9788     0.0000
   9836 C          16.4568   65.0459   73.9488 C.3   9789  UNL9789     0.0000
   9837 C          60.8913    1.6059   37.1375 C.3   9790  UNL9790     0.0000
   9838 C           5.7605   20.6114   81.5720 C.3   9791  UNL9791     0.0000
   9839 C          50.1950   46.0404   29.5143 C.3   9792  UNL9792     0.0000
   9840 C          73.9488   46.0404    5.7605 C.3   9793  UNL9793     0.0000
   9841 C          37.1375   20.6114   50.1950 C.3   9794  UNL9794     0.0000
   9842 C          81.5720    1.6059   16.4568 C.3   9795  UNL9795     0.0000
   9843 C          29.5143   65.0459   60.8913 C.3   9796  UNL9796     0.0000
   9844 C          50.1950   29.5143   46.0404 C.3   9797  UNL9797     0.0000
   9845 C           5.7605   81.5720   20.6114 C.3   9798  UNL9798     0.0000
   9846 C          60.8913   37.1375    1.6059 C.3   9799  UNL9799     0.0000
   9847 C          16.4568   73.9488   65.0459 C.3   9800  UNL9800     0.0000
   9848 C           1.6059    5.7605   29.5143 C.3   9801  UNL9801     0.0000
   9849 C          65.0459   50.1950   81.5720 C.3   9802  UNL9802     0.0000
   9850 C          46.0404   16.4568   37.1375 C.3   9803  UNL9803     0.0000
   9851 C          20.6114   60.8913   73.9488 C.3   9804  UNL9804     0.0000
   9852 C          23.8231    7.2970   38.6740 C.3   9805  UNL9805     0.0000
   9853 C          87.2631   59.3547   83.1085 C.3   9806  UNL9806     0.0000
   9854 C          68.2576   14.9202   27.9777 C.3   9807  UNL9807     0.0000
   9855 C          42.8286   51.7315   72.4122 C.3   9808  UNL9808     0.0000
   9856 C           7.2970   72.4122   87.2631 C.3   9809  UNL9809     0.0000
   9857 C          59.3547   27.9777   23.8231 C.3   9810  UNL9810     0.0000
   9858 C          14.9202   83.1085   42.8286 C.3   9811  UNL9811     0.0000
   9859 C          51.7315   38.6740   68.2576 C.3   9812  UNL9812     0.0000
   9860 C          72.4122   23.8231   14.9202 C.3   9813  UNL9813     0.0000
   9861 C          27.9777   87.2631   51.7315 C.3   9814  UNL9814     0.0000
   9862 C          83.1085   68.2576    7.2970 C.3   9815  UNL9815     0.0000
   9863 C          38.6740   42.8286   59.3547 C.3   9816  UNL9816     0.0000
   9864 C          59.3547   87.2631   83.1085 C.3   9817  UNL9817     0.0000
   9865 C           7.2970   23.8231   38.6740 C.3   9818  UNL9818     0.0000
   9866 C          51.7315   42.8286   72.4122 C.3   9819  UNL9819     0.0000
   9867 C          14.9202   68.2576   27.9777 C.3   9820  UNL9820     0.0000
   9868 C          83.1085   14.9202   42.8286 C.3   9821  UNL9821     0.0000
   9869 C          38.6740   51.7315   68.2576 C.3   9822  UNL9822     0.0000
   9870 C          72.4122    7.2970   87.2631 C.3   9823  UNL9823     0.0000
   9871 C          27.9777   59.3547   23.8231 C.3   9824  UNL9824     0.0000
   9872 C          42.8286   38.6740   59.3547 C.3   9825  UNL9825     0.0000
   9873 C          68.2576   83.1085    7.2970 C.3   9826  UNL9826     0.0000
   9874 C          87.2631   27.9777   51.7315 C.3   9827  UNL9827     0.0000
   9875 C          23.8231   72.4122   14.9202 C.3   9828  UNL9828     0.0000
   9876 C          20.6114   37.1375   50.1950 C.3   9829  UNL9829     0.0000
   9877 C          46.0404   73.9488    5.7605 C.3   9830  UNL9830     0.0000
   9878 C          65.0459   29.5143   60.8913 C.3   9831  UNL9831     0.0000
   9879 C           1.6059   81.5720   16.4568 C.3   9832  UNL9832     0.0000
   9880 C          37.1375   60.8913    1.6059 C.3   9833  UNL9833     0.0000
   9881 C          73.9488   16.4568   65.0459 C.3   9834  UNL9834     0.0000
   9882 C          29.5143   50.1950   46.0404 C.3   9835  UNL9835     0.0000
   9883 C          81.5720    5.7605   20.6114 C.3   9836  UNL9836     0.0000
   9884 C          60.8913   20.6114   73.9488 C.3   9837  UNL9837     0.0000
   9885 C          16.4568   46.0404   37.1375 C.3   9838  UNL9838     0.0000
   9886 C          50.1950   65.0459   81.5720 C.3   9839  UNL9839     0.0000
   9887 C           5.7605    1.6059   29.5143 C.3   9840  UNL9840     0.0000
   9888 C          29.5143    1.6059    5.7605 C.3   9841  UNL9841     0.0000
   9889 C          81.5720   65.0459   50.1950 C.3   9842  UNL9842     0.0000
   9890 C          37.1375   46.0404   16.4568 C.3   9843  UNL9843     0.0000
   9891 C          73.9488   20.6114   60.8913 C.3   9844  UNL9844     0.0000
   9892 C           5.7605   73.9488   46.0404 C.3   9845  UNL9845     0.0000
   9893 C          50.1950   37.1375   20.6114 C.3   9846  UNL9846     0.0000
   9894 C          16.4568   81.5720    1.6059 C.3   9847  UNL9847     0.0000
   9895 C          60.8913   29.5143   65.0459 C.3   9848  UNL9848     0.0000
   9896 C          46.0404   50.1950   29.5143 C.3   9849  UNL9849     0.0000
   9897 C          20.6114    5.7605   81.5720 C.3   9850  UNL9850     0.0000
   9898 C           1.6059   60.8913   37.1375 C.3   9851  UNL9851     0.0000
   9899 C          65.0459   16.4568   73.9488 C.3   9852  UNL9852     0.0000
   9900 C          68.2576   51.7315   38.6740 C.3   9853  UNL9853     0.0000
   9901 C          42.8286   14.9202   83.1085 C.3   9854  UNL9854     0.0000
   9902 C          23.8231   59.3547   27.9777 C.3   9855  UNL9855     0.0000
   9903 C          87.2631    7.2970   72.4122 C.3   9856  UNL9856     0.0000
   9904 C          51.7315   27.9777   87.2631 C.3   9857  UNL9857     0.0000
   9905 C          14.9202   72.4122   23.8231 C.3   9858  UNL9858     0.0000
   9906 C          59.3547   38.6740   42.8286 C.3   9859  UNL9859     0.0000
   9907 C           7.2970   83.1085   68.2576 C.3   9860  UNL9860     0.0000
   9908 C          27.9777   68.2576   14.9202 C.3   9861  UNL9861     0.0000
   9909 C          72.4122   42.8286   51.7315 C.3   9862  UNL9862     0.0000
   9910 C          38.6740   23.8231    7.2970 C.3   9863  UNL9863     0.0000
   9911 C          83.1085   87.2631   59.3547 C.3   9864  UNL9864     0.0000
   9912 C          59.3547   42.8286   38.6740 C.3   9865  UNL9865     0.0000
   9913 C           7.2970   68.2576   83.1085 C.3   9866  UNL9866     0.0000
   9914 C          51.7315   87.2631   27.9777 C.3   9867  UNL9867     0.0000
   9915 C          14.9202   23.8231   72.4122 C.3   9868  UNL9868     0.0000
   9916 C          83.1085   59.3547   87.2631 C.3   9869  UNL9869     0.0000
   9917 C          38.6740    7.2970   23.8231 C.3   9870  UNL9870     0.0000
   9918 C          72.4122   51.7315   42.8286 C.3   9871  UNL9871     0.0000
   9919 C          27.9777   14.9202   68.2576 C.3   9872  UNL9872     0.0000
   9920 C          42.8286   83.1085   14.9202 C.3   9873  UNL9873     0.0000
   9921 C          68.2576   38.6740   51.7315 C.3   9874  UNL9874     0.0000
   9922 C          87.2631   72.4122    7.2970 C.3   9875  UNL9875     0.0000
   9923 C          23.8231   27.9777   59.3547 C.3   9876  UNL9876     0.0000
   9924 C          20.6114   81.5720    5.7605 C.3   9877  UNL9877     0.0000
   9925 C          46.0404   29.5143   50.1950 C.3   9878  UNL9878     0.0000
   9926 C          65.0459   73.9488   16.4568 C.3   9879  UNL9879     0.0000
   9927 C           1.6059   37.1375   60.8913 C.3   9880  UNL9880     0.0000
   9928 C          37.1375   16.4568   46.0404 C.3   9881  UNL9881     0.0000
   9929 C          73.9488   60.8913   20.6114 C.3   9882  UNL9882     0.0000
   9930 C          29.5143    5.7605    1.6059 C.3   9883  UNL9883     0.0000
   9931 C          81.5720   50.1950   65.0459 C.3   9884  UNL9884     0.0000
   9932 C          60.8913   65.0459   29.5143 C.3   9885  UNL9885     0.0000
   9933 C          16.4568    1.6059   81.5720 C.3   9886  UNL9886     0.0000
   9934 C          50.1950   20.6114   37.1375 C.3   9887  UNL9887     0.0000
   9935 C           5.7605   46.0404   73.9488 C.3   9888  UNL9888     0.0000
   9936 C          29.5143   46.0404   50.1950 C.3   9889  UNL9889     0.0000
   9937 C          81.5720   20.6114    5.7605 C.3   9890  UNL9890     0.0000
   9938 C          37.1375    1.6059   60.8913 C.3   9891  UNL9891     0.0000
   9939 C          73.9488   65.0459   16.4568 C.3   9892  UNL9892     0.0000
   9940 C           5.7605   29.5143    1.6059 C.3   9893  UNL9893     0.0000
   9941 C          50.1950   81.5720   65.0459 C.3   9894  UNL9894     0.0000
   9942 C          16.4568   37.1375   46.0404 C.3   9895  UNL9895     0.0000
   9943 C          60.8913   73.9488   20.6114 C.3   9896  UNL9896     0.0000
   9944 C          46.0404    5.7605   73.9488 C.3   9897  UNL9897     0.0000
   9945 C          20.6114   50.1950   37.1375 C.3   9898  UNL9898     0.0000
   9946 C           1.6059   16.4568   81.5720 C.3   9899  UNL9899     0.0000
   9947 C          65.0459   60.8913   29.5143 C.3   9900  UNL9900     0.0000
   9948 C          68.2576    7.2970   83.1085 C.3   9901  UNL9901     0.0000
   9949 C          42.8286   59.3547   38.6740 C.3   9902  UNL9902     0.0000
   9950 C          23.8231   14.9202   72.4122 C.3   9903  UNL9903     0.0000
   9951 C          87.2631   51.7315   27.9777 C.3   9904  UNL9904     0.0000
   9952 C          51.7315   72.4122   42.8286 C.3   9905  UNL9905     0.0000
   9953 C          14.9202   27.9777   68.2576 C.3   9906  UNL9906     0.0000
   9954 C          59.3547   83.1085   87.2631 C.3   9907  UNL9907     0.0000
   9955 C           7.2970   38.6740   23.8231 C.3   9908  UNL9908     0.0000
   9956 C          27.9777   23.8231   59.3547 C.3   9909  UNL9909     0.0000
   9957 C          72.4122   87.2631    7.2970 C.3   9910  UNL9910     0.0000
   9958 C          38.6740   68.2576   51.7315 C.3   9911  UNL9911     0.0000
   9959 C          83.1085   42.8286   14.9202 C.3   9912  UNL9912     0.0000
   9960 C          53.8351   22.7656   83.6044 C.3   9913  UNL9913     0.0000
   9961 C           9.4006   43.8862   27.4818 C.3   9914  UNL9914     0.0000
   9962 C          57.2512   67.2001   71.9163 C.3   9915  UNL9915     0.0000
   9963 C          39.1699   12.8167   88.3207 C.3   9916  UNL9916     0.0000
   9964 C          83.6044   53.8351   22.7656 C.3   9917  UNL9917     0.0000
   9965 C          27.4818    9.4006   43.8862 C.3   9918  UNL9918     0.0000
   9966 C          71.9163   57.2512   67.2001 C.3   9919  UNL9919     0.0000
   9967 C          88.3207   39.1699   12.8167 C.3   9920  UNL9920     0.0000
   9968 C          22.7656   83.6044   53.8351 C.3   9921  UNL9921     0.0000
   9969 C          43.8862   27.4818    9.4006 C.3   9922  UNL9922     0.0000
   9970 C          67.2001   71.9163   57.2512 C.3   9923  UNL9923     0.0000
   9971 C          66.1034   35.0339    5.2646 C.3   9924  UNL9924     0.0000
   9972 C           0.5483   76.0523   49.6991 C.3   9925  UNL9925     0.0000
   9973 C          21.6689   31.6178   16.9526 C.3   9926  UNL9926     0.0000
   9974 C          44.9828   79.4684   61.3871 C.3   9927  UNL9927     0.0000
   9975 C          79.4684   61.3871   44.9828 C.3   9928  UNL9928     0.0000
   9976 C          31.6178   16.9526   21.6689 C.3   9929  UNL9929     0.0000
   9977 C          76.0523   49.6991    0.5483 C.3   9930  UNL9930     0.0000
   9978 C          35.0339    5.2646   66.1034 C.3   9931  UNL9931     0.0000
   9979 C          16.9526   21.6689   31.6178 C.3   9932  UNL9932     0.0000
   9980 C          61.3871   44.9828   79.4684 C.3   9933  UNL9933     0.0000
   9981 C           5.2646   66.1034   35.0339 C.3   9934  UNL9934     0.0000
   9982 C          49.6991    0.5483   76.0523 C.3   9935  UNL9935     0.0000
   9983 C          76.0523    0.5483   49.6991 C.3   9936  UNL9936     0.0000
   9984 C          35.0339   66.1034    5.2646 C.3   9937  UNL9937     0.0000
   9985 C          79.4684   44.9828   61.3871 C.3   9938  UNL9938     0.0000
   9986 C          31.6178   21.6689   16.9526 C.3   9939  UNL9939     0.0000
   9987 C          49.6991   76.0523    0.5483 C.3   9940  UNL9940     0.0000
   9988 C           5.2646   35.0339   66.1034 C.3   9941  UNL9941     0.0000
   9989 C          61.3871   79.4684   44.9828 C.3   9942  UNL9942     0.0000
   9990 C          16.9526   31.6178   21.6689 C.3   9943  UNL9943     0.0000
   9991 C           0.5483   49.6991   76.0523 C.3   9944  UNL9944     0.0000
   9992 C          66.1034    5.2646   35.0339 C.3   9945  UNL9945     0.0000
   9993 C          44.9828   61.3871   79.4684 C.3   9946  UNL9946     0.0000
   9994 C          21.6689   16.9526   31.6178 C.3   9947  UNL9947     0.0000
   9995 C          22.7656   53.8351   83.6044 C.3   9948  UNL9948     0.0000
   9996 C          88.3207   12.8167   39.1699 C.3   9949  UNL9949     0.0000
   9997 C          67.2001   57.2512   71.9163 C.3   9950  UNL9950     0.0000
   9998 C          43.8862    9.4006   27.4818 C.3   9951  UNL9951     0.0000
   9999 C           9.4006   27.4818   43.8862 C.3   9952  UNL9952     0.0000
  10000 C          57.2512   71.9163   67.2001 C.3   9953  UNL9953     0.0000
  10001 C          12.8167   39.1699   88.3207 C.3   9954  UNL9954     0.0000
  10002 C          53.8351   83.6044   22.7656 C.3   9955  UNL9955     0.0000
  10003 C          71.9163   67.2001   57.2512 C.3   9956  UNL9956     0.0000
  10004 C          27.4818   43.8862    9.4006 C.3   9957  UNL9957     0.0000
  10005 C          83.6044   22.7656   53.8351 C.3   9958  UNL9958     0.0000
  10006 C          39.1699   88.3207   12.8167 C.3   9959  UNL9959     0.0000
  10007 C          12.8167   43.8862   83.6044 C.3   9960  UNL9960     0.0000
  10008 C          53.8351   67.2001   39.1699 C.3   9961  UNL9961     0.0000
  10009 C           9.4006   88.3207   71.9163 C.3   9962  UNL9962     0.0000
  10010 C          57.2512   22.7656   27.4818 C.3   9963  UNL9963     0.0000
  10011 C          39.1699   57.2512   43.8862 C.3   9964  UNL9964     0.0000
  10012 C          83.6044    9.4006   67.2001 C.3   9965  UNL9965     0.0000
  10013 C          27.4818   53.8351   88.3207 C.3   9966  UNL9966     0.0000
  10014 C          71.9163   12.8167   22.7656 C.3   9967  UNL9967     0.0000
  10015 C          88.3207   83.6044   57.2512 C.3   9968  UNL9968     0.0000
  10016 C          22.7656   39.1699    9.4006 C.3   9969  UNL9969     0.0000
  10017 C          43.8862   71.9163   53.8351 C.3   9970  UNL9970     0.0000
  10018 C          67.2001   27.4818   12.8167 C.3   9971  UNL9971     0.0000
  10019 C          66.1034   79.4684   49.6991 C.3   9972  UNL9972     0.0000
  10020 C           0.5483   31.6178    5.2646 C.3   9973  UNL9973     0.0000
  10021 C          21.6689   76.0523   61.3871 C.3   9974  UNL9974     0.0000
  10022 C          44.9828   35.0339   16.9526 C.3   9975  UNL9975     0.0000
  10023 C          79.4684   16.9526    0.5483 C.3   9976  UNL9976     0.0000
  10024 C          31.6178   61.3871   66.1034 C.3   9977  UNL9977     0.0000
  10025 C          76.0523    5.2646   44.9828 C.3   9978  UNL9978     0.0000
  10026 C          35.0339   49.6991   21.6689 C.3   9979  UNL9979     0.0000
  10027 C          16.9526   66.1034   76.0523 C.3   9980  UNL9980     0.0000
  10028 C          61.3871    0.5483   35.0339 C.3   9981  UNL9981     0.0000
  10029 C           5.2646   21.6689   79.4684 C.3   9982  UNL9982     0.0000
  10030 C          49.6991   44.9828   31.6178 C.3   9983  UNL9983     0.0000
  10031 C          76.0523   44.9828    5.2646 C.3   9984  UNL9984     0.0000
  10032 C          35.0339   21.6689   49.6991 C.3   9985  UNL9985     0.0000
  10033 C          79.4684    0.5483   16.9526 C.3   9986  UNL9986     0.0000
  10034 C          31.6178   66.1034   61.3871 C.3   9987  UNL9987     0.0000
  10035 C          49.6991   31.6178   44.9828 C.3   9988  UNL9988     0.0000
  10036 C           5.2646   79.4684   21.6689 C.3   9989  UNL9989     0.0000
  10037 C          61.3871   35.0339    0.5483 C.3   9990  UNL9990     0.0000
  10038 C          16.9526   76.0523   66.1034 C.3   9991  UNL9991     0.0000
  10039 C           0.5483    5.2646   31.6178 C.3   9992  UNL9992     0.0000
  10040 C          66.1034   49.6991   79.4684 C.3   9993  UNL9993     0.0000
  10041 C          44.9828   16.9526   35.0339 C.3   9994  UNL9994     0.0000
  10042 C          21.6689   61.3871   76.0523 C.3   9995  UNL9995     0.0000
  10043 C          22.7656    9.4006   39.1699 C.3   9996  UNL9996     0.0000
  10044 C          88.3207   57.2512   83.6044 C.3   9997  UNL9997     0.0000
  10045 C          67.2001   12.8167   27.4818 C.3   9998  UNL9998     0.0000
  10046 C          43.8862   53.8351   71.9163 C.3   9999  UNL9999     0.0000
  10047 C           9.4006   71.9163   88.3207 C.3   10000  UNL10000    0.0000
  10048 C          57.2512   27.4818   22.7656 C.3   10001  UNL10001    0.0000
  10049 C          12.8167   83.6044   43.8862 C.3   10002  UNL10002    0.0000
  10050 C          53.8351   39.1699   67.2001 C.3   10003  UNL10003    0.0000
  10051 C          71.9163   22.7656   12.8167 C.3   10004  UNL10004    0.0000
  10052 C          27.4818   88.3207   53.8351 C.3   10005  UNL10005    0.0000
  10053 C          83.6044   67.2001    9.4006 C.3   10006  UNL10006    0.0000
  10054 C          39.1699   43.8862   57.2512 C.3   10007  UNL10007    0.0000
  10055 C          57.2512   88.3207   83.6044 C.3   10008  UNL10008    0.0000
  10056 C           9.4006   22.7656   39.1699 C.3   10009  UNL10009    0.0000
  10057 C          53.8351   43.8862   71.9163 C.3   10010  UNL10010    0.0000
  10058 C          12.8167   67.2001   27.4818 C.3   10011  UNL10011    0.0000
  10059 C          83.6044   12.8167   43.8862 C.3   10012  UNL10012    0.0000
  10060 C          39.1699   53.8351   67.2001 C.3   10013  UNL10013    0.0000
  10061 C          71.9163    9.4006   88.3207 C.3   10014  UNL10014    0.0000
  10062 C          27.4818   57.2512   22.7656 C.3   10015  UNL10015    0.0000
  10063 C          43.8862   39.1699   57.2512 C.3   10016  UNL10016    0.0000
  10064 C          67.2001   83.6044    9.4006 C.3   10017  UNL10017    0.0000
  10065 C          88.3207   27.4818   53.8351 C.3   10018  UNL10018    0.0000
  10066 C          22.7656   71.9163   12.8167 C.3   10019  UNL10019    0.0000
  10067 C          21.6689   35.0339   49.6991 C.3   10020  UNL10020    0.0000
  10068 C          44.9828   76.0523    5.2646 C.3   10021  UNL10021    0.0000
  10069 C          66.1034   31.6178   61.3871 C.3   10022  UNL10022    0.0000
  10070 C           0.5483   79.4684   16.9526 C.3   10023  UNL10023    0.0000
  10071 C          35.0339   61.3871    0.5483 C.3   10024  UNL10024    0.0000
  10072 C          76.0523   16.9526   66.1034 C.3   10025  UNL10025    0.0000
  10073 C          31.6178   49.6991   44.9828 C.3   10026  UNL10026    0.0000
  10074 C          79.4684    5.2646   21.6689 C.3   10027  UNL10027    0.0000
  10075 C          61.3871   21.6689   76.0523 C.3   10028  UNL10028    0.0000
  10076 C          16.9526   44.9828   35.0339 C.3   10029  UNL10029    0.0000
  10077 C          49.6991   66.1034   79.4684 C.3   10030  UNL10030    0.0000
  10078 C           5.2646    0.5483   31.6178 C.3   10031  UNL10031    0.0000
  10079 C          31.6178    0.5483    5.2646 C.3   10032  UNL10032    0.0000
  10080 C          79.4684   66.1034   49.6991 C.3   10033  UNL10033    0.0000
  10081 C          35.0339   44.9828   16.9526 C.3   10034  UNL10034    0.0000
  10082 C          76.0523   21.6689   61.3871 C.3   10035  UNL10035    0.0000
  10083 C           5.2646   76.0523   44.9828 C.3   10036  UNL10036    0.0000
  10084 C          49.6991   35.0339   21.6689 C.3   10037  UNL10037    0.0000
  10085 C          16.9526   79.4684    0.5483 C.3   10038  UNL10038    0.0000
  10086 C          61.3871   31.6178   66.1034 C.3   10039  UNL10039    0.0000
  10087 C          44.9828   49.6991   31.6178 C.3   10040  UNL10040    0.0000
  10088 C          21.6689    5.2646   79.4684 C.3   10041  UNL10041    0.0000
  10089 C           0.5483   61.3871   35.0339 C.3   10042  UNL10042    0.0000
  10090 C          66.1034   16.9526   76.0523 C.3   10043  UNL10043    0.0000
  10091 C          67.2001   53.8351   39.1699 C.3   10044  UNL10044    0.0000
  10092 C          43.8862   12.8167   83.6044 C.3   10045  UNL10045    0.0000
  10093 C          22.7656   57.2512   27.4818 C.3   10046  UNL10046    0.0000
  10094 C          88.3207    9.4006   71.9163 C.3   10047  UNL10047    0.0000
  10095 C          53.8351   27.4818   88.3207 C.3   10048  UNL10048    0.0000
  10096 C          12.8167   71.9163   22.7656 C.3   10049  UNL10049    0.0000
  10097 C          57.2512   39.1699   43.8862 C.3   10050  UNL10050    0.0000
  10098 C           9.4006   83.6044   67.2001 C.3   10051  UNL10051    0.0000
  10099 C          27.4818   67.2001   12.8167 C.3   10052  UNL10052    0.0000
  10100 C          71.9163   43.8862   53.8351 C.3   10053  UNL10053    0.0000
  10101 C          39.1699   22.7656    9.4006 C.3   10054  UNL10054    0.0000
  10102 C          83.6044   88.3207   57.2512 C.3   10055  UNL10055    0.0000
  10103 C          57.2512   43.8862   39.1699 C.3   10056  UNL10056    0.0000
  10104 C           9.4006   67.2001   83.6044 C.3   10057  UNL10057    0.0000
  10105 C          53.8351   88.3207   27.4818 C.3   10058  UNL10058    0.0000
  10106 C          12.8167   22.7656   71.9163 C.3   10059  UNL10059    0.0000
  10107 C          83.6044   57.2512   88.3207 C.3   10060  UNL10060    0.0000
  10108 C          39.1699    9.4006   22.7656 C.3   10061  UNL10061    0.0000
  10109 C          71.9163   53.8351   43.8862 C.3   10062  UNL10062    0.0000
  10110 C          27.4818   12.8167   67.2001 C.3   10063  UNL10063    0.0000
  10111 C          43.8862   83.6044   12.8167 C.3   10064  UNL10064    0.0000
  10112 C          67.2001   39.1699   53.8351 C.3   10065  UNL10065    0.0000
  10113 C          88.3207   71.9163    9.4006 C.3   10066  UNL10066    0.0000
  10114 C          22.7656   27.4818   57.2512 C.3   10067  UNL10067    0.0000
  10115 C          21.6689   79.4684    5.2646 C.3   10068  UNL10068    0.0000
  10116 C          44.9828   31.6178   49.6991 C.3   10069  UNL10069    0.0000
  10117 C          66.1034   76.0523   16.9526 C.3   10070  UNL10070    0.0000
  10118 C           0.5483   35.0339   61.3871 C.3   10071  UNL10071    0.0000
  10119 C          35.0339   16.9526   44.9828 C.3   10072  UNL10072    0.0000
  10120 C          76.0523   61.3871   21.6689 C.3   10073  UNL10073    0.0000
  10121 C          31.6178    5.2646    0.5483 C.3   10074  UNL10074    0.0000
  10122 C          79.4684   49.6991   66.1034 C.3   10075  UNL10075    0.0000
  10123 C          61.3871   66.1034   31.6178 C.3   10076  UNL10076    0.0000
  10124 C          16.9526    0.5483   79.4684 C.3   10077  UNL10077    0.0000
  10125 C          49.6991   21.6689   35.0339 C.3   10078  UNL10078    0.0000
  10126 C           5.2646   44.9828   76.0523 C.3   10079  UNL10079    0.0000
  10127 C          31.6178   44.9828   49.6991 C.3   10080  UNL10080    0.0000
  10128 C          79.4684   21.6689    5.2646 C.3   10081  UNL10081    0.0000
  10129 C          35.0339    0.5483   61.3871 C.3   10082  UNL10082    0.0000
  10130 C          76.0523   66.1034   16.9526 C.3   10083  UNL10083    0.0000
  10131 C           5.2646   31.6178    0.5483 C.3   10084  UNL10084    0.0000
  10132 C          49.6991   79.4684   66.1034 C.3   10085  UNL10085    0.0000
  10133 C          16.9526   35.0339   44.9828 C.3   10086  UNL10086    0.0000
  10134 C          61.3871   76.0523   21.6689 C.3   10087  UNL10087    0.0000
  10135 C          44.9828    5.2646   76.0523 C.3   10088  UNL10088    0.0000
  10136 C          21.6689   49.6991   35.0339 C.3   10089  UNL10089    0.0000
  10137 C           0.5483   16.9526   79.4684 C.3   10090  UNL10090    0.0000
  10138 C          66.1034   61.3871   31.6178 C.3   10091  UNL10091    0.0000
  10139 C          67.2001    9.4006   83.6044 C.3   10092  UNL10092    0.0000
  10140 C          43.8862   57.2512   39.1699 C.3   10093  UNL10093    0.0000
  10141 C          22.7656   12.8167   71.9163 C.3   10094  UNL10094    0.0000
  10142 C          88.3207   53.8351   27.4818 C.3   10095  UNL10095    0.0000
  10143 C          53.8351   71.9163   43.8862 C.3   10096  UNL10096    0.0000
  10144 C          12.8167   27.4818   67.2001 C.3   10097  UNL10097    0.0000
  10145 C          57.2512   83.6044   88.3207 C.3   10098  UNL10098    0.0000
  10146 C           9.4006   39.1699   22.7656 C.3   10099  UNL10099    0.0000
  10147 C          27.4818   22.7656   57.2512 C.3   10100  UNL10100    0.0000
  10148 C          71.9163   88.3207    9.4006 C.3   10101  UNL10101    0.0000
  10149 C          39.1699   67.2001   53.8351 C.3   10102  UNL10102    0.0000
  10150 C          83.6044   43.8862   12.8167 C.3   10103  UNL10103    0.0000
  10151 C          55.3236   22.3017   81.6866 C.3   10104  UNL10104    0.0000
  10152 C          10.8891   44.3501   29.3996 C.3   10105  UNL10105    0.0000
  10153 C          55.7626   66.7362   73.8341 C.3   10106  UNL10106    0.0000
  10154 C          37.2521   11.3281   88.7846 C.3   10107  UNL10107    0.0000
  10155 C          81.6866   55.3236   22.3017 C.3   10108  UNL10108    0.0000
  10156 C          29.3996   10.8891   44.3501 C.3   10109  UNL10109    0.0000
  10157 C          73.8341   55.7626   66.7362 C.3   10110  UNL10110    0.0000
  10158 C          88.7846   37.2521   11.3281 C.3   10111  UNL10111    0.0000
  10159 C          22.3017   81.6866   55.3236 C.3   10112  UNL10112    0.0000
  10160 C          44.3501   29.3996   10.8891 C.3   10113  UNL10113    0.0000
  10161 C          66.7362   73.8341   55.7626 C.3   10114  UNL10114    0.0000
  10162 C          66.5673   33.5454    7.1824 C.3   10115  UNL10115    0.0000
  10163 C           0.0844   77.5409   51.6169 C.3   10116  UNL10116    0.0000
  10164 C          22.1328   33.1064   15.0349 C.3   10117  UNL10117    0.0000
  10165 C          44.5189   77.9799   59.4694 C.3   10118  UNL10118    0.0000
  10166 C          77.9799   59.4694   44.5189 C.3   10119  UNL10119    0.0000
  10167 C          33.1064   15.0349   22.1328 C.3   10120  UNL10120    0.0000
  10168 C          77.5409   51.6169    0.0844 C.3   10121  UNL10121    0.0000
  10169 C          33.5454    7.1824   66.5673 C.3   10122  UNL10122    0.0000
  10170 C          15.0349   22.1328   33.1064 C.3   10123  UNL10123    0.0000
  10171 C          59.4694   44.5189   77.9799 C.3   10124  UNL10124    0.0000
  10172 C           7.1824   66.5673   33.5454 C.3   10125  UNL10125    0.0000
  10173 C          51.6169    0.0844   77.5409 C.3   10126  UNL10126    0.0000
  10174 C          77.5409    0.0844   51.6169 C.3   10127  UNL10127    0.0000
  10175 C          33.5454   66.5673    7.1824 C.3   10128  UNL10128    0.0000
  10176 C          77.9799   44.5189   59.4694 C.3   10129  UNL10129    0.0000
  10177 C          33.1064   22.1328   15.0349 C.3   10130  UNL10130    0.0000
  10178 C          51.6169   77.5409    0.0844 C.3   10131  UNL10131    0.0000
  10179 C           7.1824   33.5454   66.5673 C.3   10132  UNL10132    0.0000
  10180 C          59.4694   77.9799   44.5189 C.3   10133  UNL10133    0.0000
  10181 C          15.0349   33.1064   22.1328 C.3   10134  UNL10134    0.0000
  10182 C           0.0844   51.6169   77.5409 C.3   10135  UNL10135    0.0000
  10183 C          66.5673    7.1824   33.5454 C.3   10136  UNL10136    0.0000
  10184 C          44.5189   59.4694   77.9799 C.3   10137  UNL10137    0.0000
  10185 C          22.1328   15.0349   33.1064 C.3   10138  UNL10138    0.0000
  10186 C          22.3017   55.3236   81.6866 C.3   10139  UNL10139    0.0000
  10187 C          88.7846   11.3281   37.2521 C.3   10140  UNL10140    0.0000
  10188 C          66.7362   55.7626   73.8341 C.3   10141  UNL10141    0.0000
  10189 C          44.3501   10.8891   29.3996 C.3   10142  UNL10142    0.0000
  10190 C          10.8891   29.3996   44.3501 C.3   10143  UNL10143    0.0000
  10191 C          55.7626   73.8341   66.7362 C.3   10144  UNL10144    0.0000
  10192 C          11.3281   37.2521   88.7846 C.3   10145  UNL10145    0.0000
  10193 C          55.3236   81.6866   22.3017 C.3   10146  UNL10146    0.0000
  10194 C          73.8341   66.7362   55.7626 C.3   10147  UNL10147    0.0000
  10195 C          29.3996   44.3501   10.8891 C.3   10148  UNL10148    0.0000
  10196 C          81.6866   22.3017   55.3236 C.3   10149  UNL10149    0.0000
  10197 C          37.2521   88.7846   11.3281 C.3   10150  UNL10150    0.0000
  10198 C          11.3281   44.3501   81.6866 C.3   10151  UNL10151    0.0000
  10199 C          55.3236   66.7362   37.2521 C.3   10152  UNL10152    0.0000
  10200 C          10.8891   88.7846   73.8341 C.3   10153  UNL10153    0.0000
  10201 C          55.7626   22.3017   29.3996 C.3   10154  UNL10154    0.0000
  10202 C          37.2521   55.7626   44.3501 C.3   10155  UNL10155    0.0000
  10203 C          81.6866   10.8891   66.7362 C.3   10156  UNL10156    0.0000
  10204 C          29.3996   55.3236   88.7846 C.3   10157  UNL10157    0.0000
  10205 C          73.8341   11.3281   22.3017 C.3   10158  UNL10158    0.0000
  10206 C          88.7846   81.6866   55.7626 C.3   10159  UNL10159    0.0000
  10207 C          22.3017   37.2521   10.8891 C.3   10160  UNL10160    0.0000
  10208 C          44.3501   73.8341   55.3236 C.3   10161  UNL10161    0.0000
  10209 C          66.7362   29.3996   11.3281 C.3   10162  UNL10162    0.0000
  10210 C          66.5673   77.9799   51.6169 C.3   10163  UNL10163    0.0000
  10211 C           0.0844   33.1064    7.1824 C.3   10164  UNL10164    0.0000
  10212 C          22.1328   77.5409   59.4694 C.3   10165  UNL10165    0.0000
  10213 C          44.5189   33.5454   15.0349 C.3   10166  UNL10166    0.0000
  10214 C          77.9799   15.0349    0.0844 C.3   10167  UNL10167    0.0000
  10215 C          33.1064   59.4694   66.5673 C.3   10168  UNL10168    0.0000
  10216 C          77.5409    7.1824   44.5189 C.3   10169  UNL10169    0.0000
  10217 C          33.5454   51.6169   22.1328 C.3   10170  UNL10170    0.0000
  10218 C          15.0349   66.5673   77.5409 C.3   10171  UNL10171    0.0000
  10219 C          59.4694    0.0844   33.5454 C.3   10172  UNL10172    0.0000
  10220 C           7.1824   22.1328   77.9799 C.3   10173  UNL10173    0.0000
  10221 C          51.6169   44.5189   33.1064 C.3   10174  UNL10174    0.0000
  10222 C          77.5409   44.5189    7.1824 C.3   10175  UNL10175    0.0000
  10223 C          33.5454   22.1328   51.6169 C.3   10176  UNL10176    0.0000
  10224 C          77.9799    0.0844   15.0349 C.3   10177  UNL10177    0.0000
  10225 C          33.1064   66.5673   59.4694 C.3   10178  UNL10178    0.0000
  10226 C          51.6169   33.1064   44.5189 C.3   10179  UNL10179    0.0000
  10227 C           7.1824   77.9799   22.1328 C.3   10180  UNL10180    0.0000
  10228 C          59.4694   33.5454    0.0844 C.3   10181  UNL10181    0.0000
  10229 C          15.0349   77.5409   66.5673 C.3   10182  UNL10182    0.0000
  10230 C           0.0844    7.1824   33.1064 C.3   10183  UNL10183    0.0000
  10231 C          66.5673   51.6169   77.9799 C.3   10184  UNL10184    0.0000
  10232 C          44.5189   15.0349   33.5454 C.3   10185  UNL10185    0.0000
  10233 C          22.1328   59.4694   77.5409 C.3   10186  UNL10186    0.0000
  10234 C          22.3017   10.8891   37.2521 C.3   10187  UNL10187    0.0000
  10235 C          88.7846   55.7626   81.6866 C.3   10188  UNL10188    0.0000
  10236 C          66.7362   11.3281   29.3996 C.3   10189  UNL10189    0.0000
  10237 C          44.3501   55.3236   73.8341 C.3   10190  UNL10190    0.0000
  10238 C          10.8891   73.8341   88.7846 C.3   10191  UNL10191    0.0000
  10239 C          55.7626   29.3996   22.3017 C.3   10192  UNL10192    0.0000
  10240 C          11.3281   81.6866   44.3501 C.3   10193  UNL10193    0.0000
  10241 C          55.3236   37.2521   66.7362 C.3   10194  UNL10194    0.0000
  10242 C          73.8341   22.3017   11.3281 C.3   10195  UNL10195    0.0000
  10243 C          29.3996   88.7846   55.3236 C.3   10196  UNL10196    0.0000
  10244 C          81.6866   66.7362   10.8891 C.3   10197  UNL10197    0.0000
  10245 C          37.2521   44.3501   55.7626 C.3   10198  UNL10198    0.0000
  10246 C          55.7626   88.7846   81.6866 C.3   10199  UNL10199    0.0000
  10247 C          10.8891   22.3017   37.2521 C.3   10200  UNL10200    0.0000
  10248 C          55.3236   44.3501   73.8341 C.3   10201  UNL10201    0.0000
  10249 C          11.3281   66.7362   29.3996 C.3   10202  UNL10202    0.0000
  10250 C          81.6866   11.3281   44.3501 C.3   10203  UNL10203    0.0000
  10251 C          37.2521   55.3236   66.7362 C.3   10204  UNL10204    0.0000
  10252 C          73.8341   10.8891   88.7846 C.3   10205  UNL10205    0.0000
  10253 C          29.3996   55.7626   22.3017 C.3   10206  UNL10206    0.0000
  10254 C          44.3501   37.2521   55.7626 C.3   10207  UNL10207    0.0000
  10255 C          66.7362   81.6866   10.8891 C.3   10208  UNL10208    0.0000
  10256 C          88.7846   29.3996   55.3236 C.3   10209  UNL10209    0.0000
  10257 C          22.3017   73.8341   11.3281 C.3   10210  UNL10210    0.0000
  10258 C          22.1328   33.5454   51.6169 C.3   10211  UNL10211    0.0000
  10259 C          44.5189   77.5409    7.1824 C.3   10212  UNL10212    0.0000
  10260 C          66.5673   33.1064   59.4694 C.3   10213  UNL10213    0.0000
  10261 C           0.0844   77.9799   15.0349 C.3   10214  UNL10214    0.0000
  10262 C          33.5454   59.4694    0.0844 C.3   10215  UNL10215    0.0000
  10263 C          77.5409   15.0349   66.5673 C.3   10216  UNL10216    0.0000
  10264 C          33.1064   51.6169   44.5189 C.3   10217  UNL10217    0.0000
  10265 C          77.9799    7.1824   22.1328 C.3   10218  UNL10218    0.0000
  10266 C          59.4694   22.1328   77.5409 C.3   10219  UNL10219    0.0000
  10267 C          15.0349   44.5189   33.5454 C.3   10220  UNL10220    0.0000
  10268 C          51.6169   66.5673   77.9799 C.3   10221  UNL10221    0.0000
  10269 C           7.1824    0.0844   33.1064 C.3   10222  UNL10222    0.0000
  10270 C          33.1064    0.0844    7.1824 C.3   10223  UNL10223    0.0000
  10271 C          77.9799   66.5673   51.6169 C.3   10224  UNL10224    0.0000
  10272 C          33.5454   44.5189   15.0349 C.3   10225  UNL10225    0.0000
  10273 C          77.5409   22.1328   59.4694 C.3   10226  UNL10226    0.0000
  10274 C           7.1824   77.5409   44.5189 C.3   10227  UNL10227    0.0000
  10275 C          51.6169   33.5454   22.1328 C.3   10228  UNL10228    0.0000
  10276 C          15.0349   77.9799    0.0844 C.3   10229  UNL10229    0.0000
  10277 C          59.4694   33.1064   66.5673 C.3   10230  UNL10230    0.0000
  10278 C          44.5189   51.6169   33.1064 C.3   10231  UNL10231    0.0000
  10279 C          22.1328    7.1824   77.9799 C.3   10232  UNL10232    0.0000
  10280 C           0.0844   59.4694   33.5454 C.3   10233  UNL10233    0.0000
  10281 C          66.5673   15.0349   77.5409 C.3   10234  UNL10234    0.0000
  10282 C          66.7362   55.3236   37.2521 C.3   10235  UNL10235    0.0000
  10283 C          44.3501   11.3281   81.6866 C.3   10236  UNL10236    0.0000
  10284 C          22.3017   55.7626   29.3996 C.3   10237  UNL10237    0.0000
  10285 C          88.7846   10.8891   73.8341 C.3   10238  UNL10238    0.0000
  10286 C          55.3236   29.3996   88.7846 C.3   10239  UNL10239    0.0000
  10287 C          11.3281   73.8341   22.3017 C.3   10240  UNL10240    0.0000
  10288 C          55.7626   37.2521   44.3501 C.3   10241  UNL10241    0.0000
  10289 C          10.8891   81.6866   66.7362 C.3   10242  UNL10242    0.0000
  10290 C          29.3996   66.7362   11.3281 C.3   10243  UNL10243    0.0000
  10291 C          73.8341   44.3501   55.3236 C.3   10244  UNL10244    0.0000
  10292 C          37.2521   22.3017   10.8891 C.3   10245  UNL10245    0.0000
  10293 C          81.6866   88.7846   55.7626 C.3   10246  UNL10246    0.0000
  10294 C          55.7626   44.3501   37.2521 C.3   10247  UNL10247    0.0000
  10295 C          10.8891   66.7362   81.6866 C.3   10248  UNL10248    0.0000
  10296 C          55.3236   88.7846   29.3996 C.3   10249  UNL10249    0.0000
  10297 C          11.3281   22.3017   73.8341 C.3   10250  UNL10250    0.0000
  10298 C          81.6866   55.7626   88.7846 C.3   10251  UNL10251    0.0000
  10299 C          37.2521   10.8891   22.3017 C.3   10252  UNL10252    0.0000
  10300 C          73.8341   55.3236   44.3501 C.3   10253  UNL10253    0.0000
  10301 C          29.3996   11.3281   66.7362 C.3   10254  UNL10254    0.0000
  10302 C          44.3501   81.6866   11.3281 C.3   10255  UNL10255    0.0000
  10303 C          66.7362   37.2521   55.3236 C.3   10256  UNL10256    0.0000
  10304 C          88.7846   73.8341   10.8891 C.3   10257  UNL10257    0.0000
  10305 C          22.3017   29.3996   55.7626 C.3   10258  UNL10258    0.0000
  10306 C          22.1328   77.9799    7.1824 C.3   10259  UNL10259    0.0000
  10307 C          44.5189   33.1064   51.6169 C.3   10260  UNL10260    0.0000
  10308 C          66.5673   77.5409   15.0349 C.3   10261  UNL10261    0.0000
  10309 C           0.0844   33.5454   59.4694 C.3   10262  UNL10262    0.0000
  10310 C          33.5454   15.0349   44.5189 C.3   10263  UNL10263    0.0000
  10311 C          77.5409   59.4694   22.1328 C.3   10264  UNL10264    0.0000
  10312 C          33.1064    7.1824    0.0844 C.3   10265  UNL10265    0.0000
  10313 C          77.9799   51.6169   66.5673 C.3   10266  UNL10266    0.0000
  10314 C          59.4694   66.5673   33.1064 C.3   10267  UNL10267    0.0000
  10315 C          15.0349    0.0844   77.9799 C.3   10268  UNL10268    0.0000
  10316 C          51.6169   22.1328   33.5454 C.3   10269  UNL10269    0.0000
  10317 C           7.1824   44.5189   77.5409 C.3   10270  UNL10270    0.0000
  10318 C          33.1064   44.5189   51.6169 C.3   10271  UNL10271    0.0000
  10319 C          77.9799   22.1328    7.1824 C.3   10272  UNL10272    0.0000
  10320 C          33.5454    0.0844   59.4694 C.3   10273  UNL10273    0.0000
  10321 C          77.5409   66.5673   15.0349 C.3   10274  UNL10274    0.0000
  10322 C           7.1824   33.1064    0.0844 C.3   10275  UNL10275    0.0000
  10323 C          51.6169   77.9799   66.5673 C.3   10276  UNL10276    0.0000
  10324 C          15.0349   33.5454   44.5189 C.3   10277  UNL10277    0.0000
  10325 C          59.4694   77.5409   22.1328 C.3   10278  UNL10278    0.0000
  10326 C          44.5189    7.1824   77.5409 C.3   10279  UNL10279    0.0000
  10327 C          22.1328   51.6169   33.5454 C.3   10280  UNL10280    0.0000
  10328 C           0.0844   15.0349   77.9799 C.3   10281  UNL10281    0.0000
  10329 C          66.5673   59.4694   33.1064 C.3   10282  UNL10282    0.0000
  10330 C          66.7362   10.8891   81.6866 C.3   10283  UNL10283    0.0000
  10331 C          44.3501   55.7626   37.2521 C.3   10284  UNL10284    0.0000
  10332 C          22.3017   11.3281   73.8341 C.3   10285  UNL10285    0.0000
  10333 C          88.7846   55.3236   29.3996 C.3   10286  UNL10286    0.0000
  10334 C          55.3236   73.8341   44.3501 C.3   10287  UNL10287    0.0000
  10335 C          11.3281   29.3996   66.7362 C.3   10288  UNL10288    0.0000
  10336 C          55.7626   81.6866   88.7846 C.3   10289  UNL10289    0.0000
  10337 C          10.8891   37.2521   22.3017 C.3   10290  UNL10290    0.0000
  10338 C          29.3996   22.3017   55.7626 C.3   10291  UNL10291    0.0000
  10339 C          73.8341   88.7846   10.8891 C.3   10292  UNL10292    0.0000
  10340 C          37.2521   66.7362   55.3236 C.3   10293  UNL10293    0.0000
  10341 C          81.6866   44.3501   11.3281 C.3   10294  UNL10294    0.0000
  10342 C          54.0546   22.6518   82.2234 C.3   10295  UNL10295    0.0000
  10343 C           9.6201   43.9999   28.8629 C.3   10296  UNL10296    0.0000
  10344 C          57.0317   67.0863   73.2974 C.3   10297  UNL10297    0.0000
  10345 C          37.7889   12.5972   88.4344 C.3   10298  UNL10298    0.0000
  10346 C          82.2234   54.0546   22.6518 C.3   10299  UNL10299    0.0000
  10347 C          28.8629    9.6201   43.9999 C.3   10300  UNL10300    0.0000
  10348 C          73.2974   57.0317   67.0863 C.3   10301  UNL10301    0.0000
  10349 C          88.4344   37.7889   12.5972 C.3   10302  UNL10302    0.0000
  10350 C          22.6518   82.2234   54.0546 C.3   10303  UNL10303    0.0000
  10351 C          43.9999   28.8629    9.6201 C.3   10304  UNL10304    0.0000
  10352 C          67.0863   73.2974   57.0317 C.3   10305  UNL10305    0.0000
  10353 C          66.2172   34.8144    6.6456 C.3   10306  UNL10306    0.0000
  10354 C           0.4346   76.2718   51.0801 C.3   10307  UNL10307    0.0000
  10355 C          21.7827   31.8373   15.5716 C.3   10308  UNL10308    0.0000
  10356 C          44.8691   79.2489   60.0061 C.3   10309  UNL10309    0.0000
  10357 C          79.2489   60.0061   44.8691 C.3   10310  UNL10310    0.0000
  10358 C          31.8373   15.5716   21.7827 C.3   10311  UNL10311    0.0000
  10359 C          76.2718   51.0801    0.4346 C.3   10312  UNL10312    0.0000
  10360 C          34.8144    6.6456   66.2172 C.3   10313  UNL10313    0.0000
  10361 C          15.5716   21.7827   31.8373 C.3   10314  UNL10314    0.0000
  10362 C          60.0061   44.8691   79.2489 C.3   10315  UNL10315    0.0000
  10363 C           6.6456   66.2172   34.8144 C.3   10316  UNL10316    0.0000
  10364 C          51.0801    0.4346   76.2718 C.3   10317  UNL10317    0.0000
  10365 C          76.2718    0.4346   51.0801 C.3   10318  UNL10318    0.0000
  10366 C          34.8144   66.2172    6.6456 C.3   10319  UNL10319    0.0000
  10367 C          79.2489   44.8691   60.0061 C.3   10320  UNL10320    0.0000
  10368 C          31.8373   21.7827   15.5716 C.3   10321  UNL10321    0.0000
  10369 C          51.0801   76.2718    0.4346 C.3   10322  UNL10322    0.0000
  10370 C           6.6456   34.8144   66.2172 C.3   10323  UNL10323    0.0000
  10371 C          60.0061   79.2489   44.8691 C.3   10324  UNL10324    0.0000
  10372 C          15.5716   31.8373   21.7827 C.3   10325  UNL10325    0.0000
  10373 C           0.4346   51.0801   76.2718 C.3   10326  UNL10326    0.0000
  10374 C          66.2172    6.6456   34.8144 C.3   10327  UNL10327    0.0000
  10375 C          44.8691   60.0061   79.2489 C.3   10328  UNL10328    0.0000
  10376 C          21.7827   15.5716   31.8373 C.3   10329  UNL10329    0.0000
  10377 C          22.6518   54.0546   82.2234 C.3   10330  UNL10330    0.0000
  10378 C          88.4344   12.5972   37.7889 C.3   10331  UNL10331    0.0000
  10379 C          67.0863   57.0317   73.2974 C.3   10332  UNL10332    0.0000
  10380 C          43.9999    9.6201   28.8629 C.3   10333  UNL10333    0.0000
  10381 C           9.6201   28.8629   43.9999 C.3   10334  UNL10334    0.0000
  10382 C          57.0317   73.2974   67.0863 C.3   10335  UNL10335    0.0000
  10383 C          12.5972   37.7889   88.4344 C.3   10336  UNL10336    0.0000
  10384 C          54.0546   82.2234   22.6518 C.3   10337  UNL10337    0.0000
  10385 C          73.2974   67.0863   57.0317 C.3   10338  UNL10338    0.0000
  10386 C          28.8629   43.9999    9.6201 C.3   10339  UNL10339    0.0000
  10387 C          82.2234   22.6518   54.0546 C.3   10340  UNL10340    0.0000
  10388 C          37.7889   88.4344   12.5972 C.3   10341  UNL10341    0.0000
  10389 C          12.5972   43.9999   82.2234 C.3   10342  UNL10342    0.0000
  10390 C          54.0546   67.0863   37.7889 C.3   10343  UNL10343    0.0000
  10391 C           9.6201   88.4344   73.2974 C.3   10344  UNL10344    0.0000
  10392 C          57.0317   22.6518   28.8629 C.3   10345  UNL10345    0.0000
  10393 C          37.7889   57.0317   43.9999 C.3   10346  UNL10346    0.0000
  10394 C          82.2234    9.6201   67.0863 C.3   10347  UNL10347    0.0000
  10395 C          28.8629   54.0546   88.4344 C.3   10348  UNL10348    0.0000
  10396 C          73.2974   12.5972   22.6518 C.3   10349  UNL10349    0.0000
  10397 C          88.4344   82.2234   57.0317 C.3   10350  UNL10350    0.0000
  10398 C          22.6518   37.7889    9.6201 C.3   10351  UNL10351    0.0000
  10399 C          43.9999   73.2974   54.0546 C.3   10352  UNL10352    0.0000
  10400 C          67.0863   28.8629   12.5972 C.3   10353  UNL10353    0.0000
  10401 C          66.2172   79.2489   51.0801 C.3   10354  UNL10354    0.0000
  10402 C           0.4346   31.8373    6.6456 C.3   10355  UNL10355    0.0000
  10403 C          21.7827   76.2718   60.0061 C.3   10356  UNL10356    0.0000
  10404 C          44.8691   34.8144   15.5716 C.3   10357  UNL10357    0.0000
  10405 C          79.2489   15.5716    0.4346 C.3   10358  UNL10358    0.0000
  10406 C          31.8373   60.0061   66.2172 C.3   10359  UNL10359    0.0000
  10407 C          76.2718    6.6456   44.8691 C.3   10360  UNL10360    0.0000
  10408 C          34.8144   51.0801   21.7827 C.3   10361  UNL10361    0.0000
  10409 C          15.5716   66.2172   76.2718 C.3   10362  UNL10362    0.0000
  10410 C          60.0061    0.4346   34.8144 C.3   10363  UNL10363    0.0000
  10411 C           6.6456   21.7827   79.2489 C.3   10364  UNL10364    0.0000
  10412 C          51.0801   44.8691   31.8373 C.3   10365  UNL10365    0.0000
  10413 C          76.2718   44.8691    6.6456 C.3   10366  UNL10366    0.0000
  10414 C          34.8144   21.7827   51.0801 C.3   10367  UNL10367    0.0000
  10415 C          79.2489    0.4346   15.5716 C.3   10368  UNL10368    0.0000
  10416 C          31.8373   66.2172   60.0061 C.3   10369  UNL10369    0.0000
  10417 C          51.0801   31.8373   44.8691 C.3   10370  UNL10370    0.0000
  10418 C           6.6456   79.2489   21.7827 C.3   10371  UNL10371    0.0000
  10419 C          60.0061   34.8144    0.4346 C.3   10372  UNL10372    0.0000
  10420 C          15.5716   76.2718   66.2172 C.3   10373  UNL10373    0.0000
  10421 C           0.4346    6.6456   31.8373 C.3   10374  UNL10374    0.0000
  10422 C          66.2172   51.0801   79.2489 C.3   10375  UNL10375    0.0000
  10423 C          44.8691   15.5716   34.8144 C.3   10376  UNL10376    0.0000
  10424 C          21.7827   60.0061   76.2718 C.3   10377  UNL10377    0.0000
  10425 C          22.6518    9.6201   37.7889 C.3   10378  UNL10378    0.0000
  10426 C          88.4344   57.0317   82.2234 C.3   10379  UNL10379    0.0000
  10427 C          67.0863   12.5972   28.8629 C.3   10380  UNL10380    0.0000
  10428 C          43.9999   54.0546   73.2974 C.3   10381  UNL10381    0.0000
  10429 C           9.6201   73.2974   88.4344 C.3   10382  UNL10382    0.0000
  10430 C          57.0317   28.8629   22.6518 C.3   10383  UNL10383    0.0000
  10431 C          12.5972   82.2234   43.9999 C.3   10384  UNL10384    0.0000
  10432 C          54.0546   37.7889   67.0863 C.3   10385  UNL10385    0.0000
  10433 C          73.2974   22.6518   12.5972 C.3   10386  UNL10386    0.0000
  10434 C          28.8629   88.4344   54.0546 C.3   10387  UNL10387    0.0000
  10435 C          82.2234   67.0863    9.6201 C.3   10388  UNL10388    0.0000
  10436 C          37.7889   43.9999   57.0317 C.3   10389  UNL10389    0.0000
  10437 C          57.0317   88.4344   82.2234 C.3   10390  UNL10390    0.0000
  10438 C           9.6201   22.6518   37.7889 C.3   10391  UNL10391    0.0000
  10439 C          54.0546   43.9999   73.2974 C.3   10392  UNL10392    0.0000
  10440 C          12.5972   67.0863   28.8629 C.3   10393  UNL10393    0.0000
  10441 C          82.2234   12.5972   43.9999 C.3   10394  UNL10394    0.0000
  10442 C          37.7889   54.0546   67.0863 C.3   10395  UNL10395    0.0000
  10443 C          73.2974    9.6201   88.4344 C.3   10396  UNL10396    0.0000
  10444 C          28.8629   57.0317   22.6518 C.3   10397  UNL10397    0.0000
  10445 C          43.9999   37.7889   57.0317 C.3   10398  UNL10398    0.0000
  10446 C          67.0863   82.2234    9.6201 C.3   10399  UNL10399    0.0000
  10447 C          88.4344   28.8629   54.0546 C.3   10400  UNL10400    0.0000
  10448 C          22.6518   73.2974   12.5972 C.3   10401  UNL10401    0.0000
  10449 C          21.7827   34.8144   51.0801 C.3   10402  UNL10402    0.0000
  10450 C          44.8691   76.2718    6.6456 C.3   10403  UNL10403    0.0000
  10451 C          66.2172   31.8373   60.0061 C.3   10404  UNL10404    0.0000
  10452 C           0.4346   79.2489   15.5716 C.3   10405  UNL10405    0.0000
  10453 C          34.8144   60.0061    0.4346 C.3   10406  UNL10406    0.0000
  10454 C          76.2718   15.5716   66.2172 C.3   10407  UNL10407    0.0000
  10455 C          31.8373   51.0801   44.8691 C.3   10408  UNL10408    0.0000
  10456 C          79.2489    6.6456   21.7827 C.3   10409  UNL10409    0.0000
  10457 C          60.0061   21.7827   76.2718 C.3   10410  UNL10410    0.0000
  10458 C          15.5716   44.8691   34.8144 C.3   10411  UNL10411    0.0000
  10459 C          51.0801   66.2172   79.2489 C.3   10412  UNL10412    0.0000
  10460 C           6.6456    0.4346   31.8373 C.3   10413  UNL10413    0.0000
  10461 C          31.8373    0.4346    6.6456 C.3   10414  UNL10414    0.0000
  10462 C          79.2489   66.2172   51.0801 C.3   10415  UNL10415    0.0000
  10463 C          34.8144   44.8691   15.5716 C.3   10416  UNL10416    0.0000
  10464 C          76.2718   21.7827   60.0061 C.3   10417  UNL10417    0.0000
  10465 C           6.6456   76.2718   44.8691 C.3   10418  UNL10418    0.0000
  10466 C          51.0801   34.8144   21.7827 C.3   10419  UNL10419    0.0000
  10467 C          15.5716   79.2489    0.4346 C.3   10420  UNL10420    0.0000
  10468 C          60.0061   31.8373   66.2172 C.3   10421  UNL10421    0.0000
  10469 C          44.8691   51.0801   31.8373 C.3   10422  UNL10422    0.0000
  10470 C          21.7827    6.6456   79.2489 C.3   10423  UNL10423    0.0000
  10471 C           0.4346   60.0061   34.8144 C.3   10424  UNL10424    0.0000
  10472 C          66.2172   15.5716   76.2718 C.3   10425  UNL10425    0.0000
  10473 C          67.0863   54.0546   37.7889 C.3   10426  UNL10426    0.0000
  10474 C          43.9999   12.5972   82.2234 C.3   10427  UNL10427    0.0000
  10475 C          22.6518   57.0317   28.8629 C.3   10428  UNL10428    0.0000
  10476 C          88.4344    9.6201   73.2974 C.3   10429  UNL10429    0.0000
  10477 C          54.0546   28.8629   88.4344 C.3   10430  UNL10430    0.0000
  10478 C          12.5972   73.2974   22.6518 C.3   10431  UNL10431    0.0000
  10479 C          57.0317   37.7889   43.9999 C.3   10432  UNL10432    0.0000
  10480 C           9.6201   82.2234   67.0863 C.3   10433  UNL10433    0.0000
  10481 C          28.8629   67.0863   12.5972 C.3   10434  UNL10434    0.0000
  10482 C          73.2974   43.9999   54.0546 C.3   10435  UNL10435    0.0000
  10483 C          37.7889   22.6518    9.6201 C.3   10436  UNL10436    0.0000
  10484 C          82.2234   88.4344   57.0317 C.3   10437  UNL10437    0.0000
  10485 C          57.0317   43.9999   37.7889 C.3   10438  UNL10438    0.0000
  10486 C           9.6201   67.0863   82.2234 C.3   10439  UNL10439    0.0000
  10487 C          54.0546   88.4344   28.8629 C.3   10440  UNL10440    0.0000
  10488 C          12.5972   22.6518   73.2974 C.3   10441  UNL10441    0.0000
  10489 C          82.2234   57.0317   88.4344 C.3   10442  UNL10442    0.0000
  10490 C          37.7889    9.6201   22.6518 C.3   10443  UNL10443    0.0000
  10491 C          73.2974   54.0546   43.9999 C.3   10444  UNL10444    0.0000
  10492 C          28.8629   12.5972   67.0863 C.3   10445  UNL10445    0.0000
  10493 C          43.9999   82.2234   12.5972 C.3   10446  UNL10446    0.0000
  10494 C          67.0863   37.7889   54.0546 C.3   10447  UNL10447    0.0000
  10495 C          88.4344   73.2974    9.6201 C.3   10448  UNL10448    0.0000
  10496 C          22.6518   28.8629   57.0317 C.3   10449  UNL10449    0.0000
  10497 C          21.7827   79.2489    6.6456 C.3   10450  UNL10450    0.0000
  10498 C          44.8691   31.8373   51.0801 C.3   10451  UNL10451    0.0000
  10499 C          66.2172   76.2718   15.5716 C.3   10452  UNL10452    0.0000
  10500 C           0.4346   34.8144   60.0061 C.3   10453  UNL10453    0.0000
  10501 C          34.8144   15.5716   44.8691 C.3   10454  UNL10454    0.0000
  10502 C          76.2718   60.0061   21.7827 C.3   10455  UNL10455    0.0000
  10503 C          31.8373    6.6456    0.4346 C.3   10456  UNL10456    0.0000
  10504 C          79.2489   51.0801   66.2172 C.3   10457  UNL10457    0.0000
  10505 C          60.0061   66.2172   31.8373 C.3   10458  UNL10458    0.0000
  10506 C          15.5716    0.4346   79.2489 C.3   10459  UNL10459    0.0000
  10507 C          51.0801   21.7827   34.8144 C.3   10460  UNL10460    0.0000
  10508 C           6.6456   44.8691   76.2718 C.3   10461  UNL10461    0.0000
  10509 C          31.8373   44.8691   51.0801 C.3   10462  UNL10462    0.0000
  10510 C          79.2489   21.7827    6.6456 C.3   10463  UNL10463    0.0000
  10511 C          34.8144    0.4346   60.0061 C.3   10464  UNL10464    0.0000
  10512 C          76.2718   66.2172   15.5716 C.3   10465  UNL10465    0.0000
  10513 C           6.6456   31.8373    0.4346 C.3   10466  UNL10466    0.0000
  10514 C          51.0801   79.2489   66.2172 C.3   10467  UNL10467    0.0000
  10515 C          15.5716   34.8144   44.8691 C.3   10468  UNL10468    0.0000
  10516 C          60.0061   76.2718   21.7827 C.3   10469  UNL10469    0.0000
  10517 C          44.8691    6.6456   76.2718 C.3   10470  UNL10470    0.0000
  10518 C          21.7827   51.0801   34.8144 C.3   10471  UNL10471    0.0000
  10519 C           0.4346   15.5716   79.2489 C.3   10472  UNL10472    0.0000
  10520 C          66.2172   60.0061   31.8373 C.3   10473  UNL10473    0.0000
  10521 C          67.0863    9.6201   82.2234 C.3   10474  UNL10474    0.0000
  10522 C          43.9999   57.0317   37.7889 C.3   10475  UNL10475    0.0000
  10523 C          22.6518   12.5972   73.2974 C.3   10476  UNL10476    0.0000
  10524 C          88.4344   54.0546   28.8629 C.3   10477  UNL10477    0.0000
  10525 C          54.0546   73.2974   43.9999 C.3   10478  UNL10478    0.0000
  10526 C          12.5972   28.8629   67.0863 C.3   10479  UNL10479    0.0000
  10527 C          57.0317   82.2234   88.4344 C.3   10480  UNL10480    0.0000
  10528 C           9.6201   37.7889   22.6518 C.3   10481  UNL10481    0.0000
  10529 C          28.8629   22.6518   57.0317 C.3   10482  UNL10482    0.0000
  10530 C          73.2974   88.4344    9.6201 C.3   10483  UNL10483    0.0000
  10531 C          37.7889   67.0863   54.0546 C.3   10484  UNL10484    0.0000
  10532 C          82.2234   43.9999   12.5972 C.3   10485  UNL10485    0.0000
  10533 C          52.0026   23.8578   81.7310 C.3   10486  UNL10486    0.0000
  10534 C           7.5681   42.7940   29.3552 C.3   10487  UNL10487    0.0000
  10535 C          59.0837   68.2923   73.7897 C.3   10488  UNL10488    0.0000
  10536 C          37.2965   14.6492   87.2285 C.3   10489  UNL10489    0.0000
  10537 C          81.7310   52.0026   23.8578 C.3   10490  UNL10490    0.0000
  10538 C          29.3552    7.5681   42.7940 C.3   10491  UNL10491    0.0000
  10539 C          73.7897   59.0837   68.2923 C.3   10492  UNL10492    0.0000
  10540 C          87.2285   37.2965   14.6492 C.3   10493  UNL10493    0.0000
  10541 C          23.8578   81.7310   52.0026 C.3   10494  UNL10494    0.0000
  10542 C          42.7940   29.3552    7.5681 C.3   10495  UNL10495    0.0000
  10543 C          68.2923   73.7897   59.0837 C.3   10496  UNL10496    0.0000
  10544 C          65.0112   36.8664    7.1380 C.3   10497  UNL10497    0.0000
  10545 C           1.6405   74.2198   51.5725 C.3   10498  UNL10498    0.0000
  10546 C          20.5767   29.7853   15.0793 C.3   10499  UNL10499    0.0000
  10547 C          46.0750   81.3009   59.5138 C.3   10500  UNL10500    0.0000
  10548 C          81.3009   59.5138   46.0750 C.3   10501  UNL10501    0.0000
  10549 C          29.7853   15.0793   20.5767 C.3   10502  UNL10502    0.0000
  10550 C          74.2198   51.5725    1.6405 C.3   10503  UNL10503    0.0000
  10551 C          36.8664    7.1380   65.0112 C.3   10504  UNL10504    0.0000
  10552 C          15.0793   20.5767   29.7853 C.3   10505  UNL10505    0.0000
  10553 C          59.5138   46.0750   81.3009 C.3   10506  UNL10506    0.0000
  10554 C           7.1380   65.0112   36.8664 C.3   10507  UNL10507    0.0000
  10555 C          51.5725    1.6405   74.2198 C.3   10508  UNL10508    0.0000
  10556 C          74.2198    1.6405   51.5725 C.3   10509  UNL10509    0.0000
  10557 C          36.8664   65.0112    7.1380 C.3   10510  UNL10510    0.0000
  10558 C          81.3009   46.0750   59.5138 C.3   10511  UNL10511    0.0000
  10559 C          29.7853   20.5767   15.0793 C.3   10512  UNL10512    0.0000
  10560 C          51.5725   74.2198    1.6405 C.3   10513  UNL10513    0.0000
  10561 C           7.1380   36.8664   65.0112 C.3   10514  UNL10514    0.0000
  10562 C          59.5138   81.3009   46.0750 C.3   10515  UNL10515    0.0000
  10563 C          15.0793   29.7853   20.5767 C.3   10516  UNL10516    0.0000
  10564 C           1.6405   51.5725   74.2198 C.3   10517  UNL10517    0.0000
  10565 C          65.0112    7.1380   36.8664 C.3   10518  UNL10518    0.0000
  10566 C          46.0750   59.5138   81.3009 C.3   10519  UNL10519    0.0000
  10567 C          20.5767   15.0793   29.7853 C.3   10520  UNL10520    0.0000
  10568 C          23.8578   52.0026   81.7310 C.3   10521  UNL10521    0.0000
  10569 C          87.2285   14.6492   37.2965 C.3   10522  UNL10522    0.0000
  10570 C          68.2923   59.0837   73.7897 C.3   10523  UNL10523    0.0000
  10571 C          42.7940    7.5681   29.3552 C.3   10524  UNL10524    0.0000
  10572 C           7.5681   29.3552   42.7940 C.3   10525  UNL10525    0.0000
  10573 C          59.0837   73.7897   68.2923 C.3   10526  UNL10526    0.0000
  10574 C          14.6492   37.2965   87.2285 C.3   10527  UNL10527    0.0000
  10575 C          52.0026   81.7310   23.8578 C.3   10528  UNL10528    0.0000
  10576 C          73.7897   68.2923   59.0837 C.3   10529  UNL10529    0.0000
  10577 C          29.3552   42.7940    7.5681 C.3   10530  UNL10530    0.0000
  10578 C          81.7310   23.8578   52.0026 C.3   10531  UNL10531    0.0000
  10579 C          37.2965   87.2285   14.6492 C.3   10532  UNL10532    0.0000
  10580 C          14.6492   42.7940   81.7310 C.3   10533  UNL10533    0.0000
  10581 C          52.0026   68.2923   37.2965 C.3   10534  UNL10534    0.0000
  10582 C           7.5681   87.2285   73.7897 C.3   10535  UNL10535    0.0000
  10583 C          59.0837   23.8578   29.3552 C.3   10536  UNL10536    0.0000
  10584 C          37.2965   59.0837   42.7940 C.3   10537  UNL10537    0.0000
  10585 C          81.7310    7.5681   68.2923 C.3   10538  UNL10538    0.0000
  10586 C          29.3552   52.0026   87.2285 C.3   10539  UNL10539    0.0000
  10587 C          73.7897   14.6492   23.8578 C.3   10540  UNL10540    0.0000
  10588 C          87.2285   81.7310   59.0837 C.3   10541  UNL10541    0.0000
  10589 C          23.8578   37.2965    7.5681 C.3   10542  UNL10542    0.0000
  10590 C          42.7940   73.7897   52.0026 C.3   10543  UNL10543    0.0000
  10591 C          68.2923   29.3552   14.6492 C.3   10544  UNL10544    0.0000
  10592 C          65.0112   81.3009   51.5725 C.3   10545  UNL10545    0.0000
  10593 C           1.6405   29.7853    7.1380 C.3   10546  UNL10546    0.0000
  10594 C          20.5767   74.2198   59.5138 C.3   10547  UNL10547    0.0000
  10595 C          46.0750   36.8664   15.0793 C.3   10548  UNL10548    0.0000
  10596 C          81.3009   15.0793    1.6405 C.3   10549  UNL10549    0.0000
  10597 C          29.7853   59.5138   65.0112 C.3   10550  UNL10550    0.0000
  10598 C          74.2198    7.1380   46.0750 C.3   10551  UNL10551    0.0000
  10599 C          36.8664   51.5725   20.5767 C.3   10552  UNL10552    0.0000
  10600 C          15.0793   65.0112   74.2198 C.3   10553  UNL10553    0.0000
  10601 C          59.5138    1.6405   36.8664 C.3   10554  UNL10554    0.0000
  10602 C           7.1380   20.5767   81.3009 C.3   10555  UNL10555    0.0000
  10603 C          51.5725   46.0750   29.7853 C.3   10556  UNL10556    0.0000
  10604 C          74.2198   46.0750    7.1380 C.3   10557  UNL10557    0.0000
  10605 C          36.8664   20.5767   51.5725 C.3   10558  UNL10558    0.0000
  10606 C          81.3009    1.6405   15.0793 C.3   10559  UNL10559    0.0000
  10607 C          29.7853   65.0112   59.5138 C.3   10560  UNL10560    0.0000
  10608 C          51.5725   29.7853   46.0750 C.3   10561  UNL10561    0.0000
  10609 C           7.1380   81.3009   20.5767 C.3   10562  UNL10562    0.0000
  10610 C          59.5138   36.8664    1.6405 C.3   10563  UNL10563    0.0000
  10611 C          15.0793   74.2198   65.0112 C.3   10564  UNL10564    0.0000
  10612 C           1.6405    7.1380   29.7853 C.3   10565  UNL10565    0.0000
  10613 C          65.0112   51.5725   81.3009 C.3   10566  UNL10566    0.0000
  10614 C          46.0750   15.0793   36.8664 C.3   10567  UNL10567    0.0000
  10615 C          20.5767   59.5138   74.2198 C.3   10568  UNL10568    0.0000
  10616 C          23.8578    7.5681   37.2965 C.3   10569  UNL10569    0.0000
  10617 C          87.2285   59.0837   81.7310 C.3   10570  UNL10570    0.0000
  10618 C          68.2923   14.6492   29.3552 C.3   10571  UNL10571    0.0000
  10619 C          42.7940   52.0026   73.7897 C.3   10572  UNL10572    0.0000
  10620 C           7.5681   73.7897   87.2285 C.3   10573  UNL10573    0.0000
  10621 C          59.0837   29.3552   23.8578 C.3   10574  UNL10574    0.0000
  10622 C          14.6492   81.7310   42.7940 C.3   10575  UNL10575    0.0000
  10623 C          52.0026   37.2965   68.2923 C.3   10576  UNL10576    0.0000
  10624 C          73.7897   23.8578   14.6492 C.3   10577  UNL10577    0.0000
  10625 C          29.3552   87.2285   52.0026 C.3   10578  UNL10578    0.0000
  10626 C          81.7310   68.2923    7.5681 C.3   10579  UNL10579    0.0000
  10627 C          37.2965   42.7940   59.0837 C.3   10580  UNL10580    0.0000
  10628 C          59.0837   87.2285   81.7310 C.3   10581  UNL10581    0.0000
  10629 C           7.5681   23.8578   37.2965 C.3   10582  UNL10582    0.0000
  10630 C          52.0026   42.7940   73.7897 C.3   10583  UNL10583    0.0000
  10631 C          14.6492   68.2923   29.3552 C.3   10584  UNL10584    0.0000
  10632 C          81.7310   14.6492   42.7940 C.3   10585  UNL10585    0.0000
  10633 C          37.2965   52.0026   68.2923 C.3   10586  UNL10586    0.0000
  10634 C          73.7897    7.5681   87.2285 C.3   10587  UNL10587    0.0000
  10635 C          29.3552   59.0837   23.8578 C.3   10588  UNL10588    0.0000
  10636 C          42.7940   37.2965   59.0837 C.3   10589  UNL10589    0.0000
  10637 C          68.2923   81.7310    7.5681 C.3   10590  UNL10590    0.0000
  10638 C          87.2285   29.3552   52.0026 C.3   10591  UNL10591    0.0000
  10639 C          23.8578   73.7897   14.6492 C.3   10592  UNL10592    0.0000
  10640 C          20.5767   36.8664   51.5725 C.3   10593  UNL10593    0.0000
  10641 C          46.0750   74.2198    7.1380 C.3   10594  UNL10594    0.0000
  10642 C          65.0112   29.7853   59.5138 C.3   10595  UNL10595    0.0000
  10643 C           1.6405   81.3009   15.0793 C.3   10596  UNL10596    0.0000
  10644 C          36.8664   59.5138    1.6405 C.3   10597  UNL10597    0.0000
  10645 C          74.2198   15.0793   65.0112 C.3   10598  UNL10598    0.0000
  10646 C          29.7853   51.5725   46.0750 C.3   10599  UNL10599    0.0000
  10647 C          81.3009    7.1380   20.5767 C.3   10600  UNL10600    0.0000
  10648 C          59.5138   20.5767   74.2198 C.3   10601  UNL10601    0.0000
  10649 C          15.0793   46.0750   36.8664 C.3   10602  UNL10602    0.0000
  10650 C          51.5725   65.0112   81.3009 C.3   10603  UNL10603    0.0000
  10651 C           7.1380    1.6405   29.7853 C.3   10604  UNL10604    0.0000
  10652 C          29.7853    1.6405    7.1380 C.3   10605  UNL10605    0.0000
  10653 C          81.3009   65.0112   51.5725 C.3   10606  UNL10606    0.0000
  10654 C          36.8664   46.0750   15.0793 C.3   10607  UNL10607    0.0000
  10655 C          74.2198   20.5767   59.5138 C.3   10608  UNL10608    0.0000
  10656 C           7.1380   74.2198   46.0750 C.3   10609  UNL10609    0.0000
  10657 C          51.5725   36.8664   20.5767 C.3   10610  UNL10610    0.0000
  10658 C          15.0793   81.3009    1.6405 C.3   10611  UNL10611    0.0000
  10659 C          59.5138   29.7853   65.0112 C.3   10612  UNL10612    0.0000
  10660 C          46.0750   51.5725   29.7853 C.3   10613  UNL10613    0.0000
  10661 C          20.5767    7.1380   81.3009 C.3   10614  UNL10614    0.0000
  10662 C           1.6405   59.5138   36.8664 C.3   10615  UNL10615    0.0000
  10663 C          65.0112   15.0793   74.2198 C.3   10616  UNL10616    0.0000
  10664 C          68.2923   52.0026   37.2965 C.3   10617  UNL10617    0.0000
  10665 C          42.7940   14.6492   81.7310 C.3   10618  UNL10618    0.0000
  10666 C          23.8578   59.0837   29.3552 C.3   10619  UNL10619    0.0000
  10667 C          87.2285    7.5681   73.7897 C.3   10620  UNL10620    0.0000
  10668 C          52.0026   29.3552   87.2285 C.3   10621  UNL10621    0.0000
  10669 C          14.6492   73.7897   23.8578 C.3   10622  UNL10622    0.0000
  10670 C          59.0837   37.2965   42.7940 C.3   10623  UNL10623    0.0000
  10671 C           7.5681   81.7310   68.2923 C.3   10624  UNL10624    0.0000
  10672 C          29.3552   68.2923   14.6492 C.3   10625  UNL10625    0.0000
  10673 C          73.7897   42.7940   52.0026 C.3   10626  UNL10626    0.0000
  10674 C          37.2965   23.8578    7.5681 C.3   10627  UNL10627    0.0000
  10675 C          81.7310   87.2285   59.0837 C.3   10628  UNL10628    0.0000
  10676 C          59.0837   42.7940   37.2965 C.3   10629  UNL10629    0.0000
  10677 C           7.5681   68.2923   81.7310 C.3   10630  UNL10630    0.0000
  10678 C          52.0026   87.2285   29.3552 C.3   10631  UNL10631    0.0000
  10679 C          14.6492   23.8578   73.7897 C.3   10632  UNL10632    0.0000
  10680 C          81.7310   59.0837   87.2285 C.3   10633  UNL10633    0.0000
  10681 C          37.2965    7.5681   23.8578 C.3   10634  UNL10634    0.0000
  10682 C          73.7897   52.0026   42.7940 C.3   10635  UNL10635    0.0000
  10683 C          29.3552   14.6492   68.2923 C.3   10636  UNL10636    0.0000
  10684 C          42.7940   81.7310   14.6492 C.3   10637  UNL10637    0.0000
  10685 C          68.2923   37.2965   52.0026 C.3   10638  UNL10638    0.0000
  10686 C          87.2285   73.7897    7.5681 C.3   10639  UNL10639    0.0000
  10687 C          23.8578   29.3552   59.0837 C.3   10640  UNL10640    0.0000
  10688 C          20.5767   81.3009    7.1380 C.3   10641  UNL10641    0.0000
  10689 C          46.0750   29.7853   51.5725 C.3   10642  UNL10642    0.0000
  10690 C          65.0112   74.2198   15.0793 C.3   10643  UNL10643    0.0000
  10691 C           1.6405   36.8664   59.5138 C.3   10644  UNL10644    0.0000
  10692 C          36.8664   15.0793   46.0750 C.3   10645  UNL10645    0.0000
  10693 C          74.2198   59.5138   20.5767 C.3   10646  UNL10646    0.0000
  10694 C          29.7853    7.1380    1.6405 C.3   10647  UNL10647    0.0000
  10695 C          81.3009   51.5725   65.0112 C.3   10648  UNL10648    0.0000
  10696 C          59.5138   65.0112   29.7853 C.3   10649  UNL10649    0.0000
  10697 C          15.0793    1.6405   81.3009 C.3   10650  UNL10650    0.0000
  10698 C          51.5725   20.5767   36.8664 C.3   10651  UNL10651    0.0000
  10699 C           7.1380   46.0750   74.2198 C.3   10652  UNL10652    0.0000
  10700 C          29.7853   46.0750   51.5725 C.3   10653  UNL10653    0.0000
  10701 C          81.3009   20.5767    7.1380 C.3   10654  UNL10654    0.0000
  10702 C          36.8664    1.6405   59.5138 C.3   10655  UNL10655    0.0000
  10703 C          74.2198   65.0112   15.0793 C.3   10656  UNL10656    0.0000
  10704 C           7.1380   29.7853    1.6405 C.3   10657  UNL10657    0.0000
  10705 C          51.5725   81.3009   65.0112 C.3   10658  UNL10658    0.0000
  10706 C          15.0793   36.8664   46.0750 C.3   10659  UNL10659    0.0000
  10707 C          59.5138   74.2198   20.5767 C.3   10660  UNL10660    0.0000
  10708 C          46.0750    7.1380   74.2198 C.3   10661  UNL10661    0.0000
  10709 C          20.5767   51.5725   36.8664 C.3   10662  UNL10662    0.0000
  10710 C           1.6405   15.0793   81.3009 C.3   10663  UNL10663    0.0000
  10711 C          65.0112   59.5138   29.7853 C.3   10664  UNL10664    0.0000
  10712 C          68.2923    7.5681   81.7310 C.3   10665  UNL10665    0.0000
  10713 C          42.7940   59.0837   37.2965 C.3   10666  UNL10666    0.0000
  10714 C          23.8578   14.6492   73.7897 C.3   10667  UNL10667    0.0000
  10715 C          87.2285   52.0026   29.3552 C.3   10668  UNL10668    0.0000
  10716 C          52.0026   73.7897   42.7940 C.3   10669  UNL10669    0.0000
  10717 C          14.6492   29.3552   68.2923 C.3   10670  UNL10670    0.0000
  10718 C          59.0837   81.7310   87.2285 C.3   10671  UNL10671    0.0000
  10719 C           7.5681   37.2965   23.8578 C.3   10672  UNL10672    0.0000
  10720 C          29.3552   23.8578   59.0837 C.3   10673  UNL10673    0.0000
  10721 C          73.7897   87.2285    7.5681 C.3   10674  UNL10674    0.0000
  10722 C          37.2965   68.2923   52.0026 C.3   10675  UNL10675    0.0000
  10723 C          81.7310   42.7940   14.6492 C.3   10676  UNL10676    0.0000
  10724 C          53.1810   23.2579   81.2778 C.3   10677  UNL10677    0.0000
  10725 C           8.7465   43.3938   29.8084 C.3   10678  UNL10678    0.0000
  10726 C          57.9053   67.6924   74.2429 C.3   10679  UNL10679    0.0000
  10727 C          36.8433   13.4708   87.8283 C.3   10680  UNL10680    0.0000
  10728 C          81.2778   53.1810   23.2579 C.3   10681  UNL10681    0.0000
  10729 C          29.8084    8.7465   43.3938 C.3   10682  UNL10682    0.0000
  10730 C          74.2429   57.9053   67.6924 C.3   10683  UNL10683    0.0000
  10731 C          87.8283   36.8433   13.4708 C.3   10684  UNL10684    0.0000
  10732 C          23.2579   81.2778   53.1810 C.3   10685  UNL10685    0.0000
  10733 C          43.3938   29.8084    8.7465 C.3   10686  UNL10686    0.0000
  10734 C          67.6924   74.2429   57.9053 C.3   10687  UNL10687    0.0000
  10735 C          65.6111   35.6880    7.5912 C.3   10688  UNL10688    0.0000
  10736 C           1.0407   75.3982   52.0257 C.3   10689  UNL10689    0.0000
  10737 C          21.1766   30.9637   14.6261 C.3   10690  UNL10690    0.0000
  10738 C          45.4752   80.1225   59.0606 C.3   10691  UNL10691    0.0000
  10739 C          80.1225   59.0606   45.4752 C.3   10692  UNL10692    0.0000
  10740 C          30.9637   14.6261   21.1766 C.3   10693  UNL10693    0.0000
  10741 C          75.3982   52.0257    1.0407 C.3   10694  UNL10694    0.0000
  10742 C          35.6880    7.5912   65.6111 C.3   10695  UNL10695    0.0000
  10743 C          14.6261   21.1766   30.9637 C.3   10696  UNL10696    0.0000
  10744 C          59.0606   45.4752   80.1225 C.3   10697  UNL10697    0.0000
  10745 C           7.5912   65.6111   35.6880 C.3   10698  UNL10698    0.0000
  10746 C          52.0257    1.0407   75.3982 C.3   10699  UNL10699    0.0000
  10747 C          75.3982    1.0407   52.0257 C.3   10700  UNL10700    0.0000
  10748 C          35.6880   65.6111    7.5912 C.3   10701  UNL10701    0.0000
  10749 C          80.1225   45.4752   59.0606 C.3   10702  UNL10702    0.0000
  10750 C          30.9637   21.1766   14.6261 C.3   10703  UNL10703    0.0000
  10751 C          52.0257   75.3982    1.0407 C.3   10704  UNL10704    0.0000
  10752 C           7.5912   35.6880   65.6111 C.3   10705  UNL10705    0.0000
  10753 C          59.0606   80.1225   45.4752 C.3   10706  UNL10706    0.0000
  10754 C          14.6261   30.9637   21.1766 C.3   10707  UNL10707    0.0000
  10755 C           1.0407   52.0257   75.3982 C.3   10708  UNL10708    0.0000
  10756 C          65.6111    7.5912   35.6880 C.3   10709  UNL10709    0.0000
  10757 C          45.4752   59.0606   80.1225 C.3   10710  UNL10710    0.0000
  10758 C          21.1766   14.6261   30.9637 C.3   10711  UNL10711    0.0000
  10759 C          23.2579   53.1810   81.2778 C.3   10712  UNL10712    0.0000
  10760 C          87.8283   13.4708   36.8433 C.3   10713  UNL10713    0.0000
  10761 C          67.6924   57.9053   74.2429 C.3   10714  UNL10714    0.0000
  10762 C          43.3938    8.7465   29.8084 C.3   10715  UNL10715    0.0000
  10763 C           8.7465   29.8084   43.3938 C.3   10716  UNL10716    0.0000
  10764 C          57.9053   74.2429   67.6924 C.3   10717  UNL10717    0.0000
  10765 C          13.4708   36.8433   87.8283 C.3   10718  UNL10718    0.0000
  10766 C          53.1810   81.2778   23.2579 C.3   10719  UNL10719    0.0000
  10767 C          74.2429   67.6924   57.9053 C.3   10720  UNL10720    0.0000
  10768 C          29.8084   43.3938    8.7465 C.3   10721  UNL10721    0.0000
  10769 C          81.2778   23.2579   53.1810 C.3   10722  UNL10722    0.0000
  10770 C          36.8433   87.8283   13.4708 C.3   10723  UNL10723    0.0000
  10771 C          13.4708   43.3938   81.2778 C.3   10724  UNL10724    0.0000
  10772 C          53.1810   67.6924   36.8433 C.3   10725  UNL10725    0.0000
  10773 C           8.7465   87.8283   74.2429 C.3   10726  UNL10726    0.0000
  10774 C          57.9053   23.2579   29.8084 C.3   10727  UNL10727    0.0000
  10775 C          36.8433   57.9053   43.3938 C.3   10728  UNL10728    0.0000
  10776 C          81.2778    8.7465   67.6924 C.3   10729  UNL10729    0.0000
  10777 C          29.8084   53.1810   87.8283 C.3   10730  UNL10730    0.0000
  10778 C          74.2429   13.4708   23.2579 C.3   10731  UNL10731    0.0000
  10779 C          87.8283   81.2778   57.9053 C.3   10732  UNL10732    0.0000
  10780 C          23.2579   36.8433    8.7465 C.3   10733  UNL10733    0.0000
  10781 C          43.3938   74.2429   53.1810 C.3   10734  UNL10734    0.0000
  10782 C          67.6924   29.8084   13.4708 C.3   10735  UNL10735    0.0000
  10783 C          65.6111   80.1225   52.0257 C.3   10736  UNL10736    0.0000
  10784 C           1.0407   30.9637    7.5912 C.3   10737  UNL10737    0.0000
  10785 C          21.1766   75.3982   59.0606 C.3   10738  UNL10738    0.0000
  10786 C          45.4752   35.6880   14.6261 C.3   10739  UNL10739    0.0000
  10787 C          80.1225   14.6261    1.0407 C.3   10740  UNL10740    0.0000
  10788 C          30.9637   59.0606   65.6111 C.3   10741  UNL10741    0.0000
  10789 C          75.3982    7.5912   45.4752 C.3   10742  UNL10742    0.0000
  10790 C          35.6880   52.0257   21.1766 C.3   10743  UNL10743    0.0000
  10791 C          14.6261   65.6111   75.3982 C.3   10744  UNL10744    0.0000
  10792 C          59.0606    1.0407   35.6880 C.3   10745  UNL10745    0.0000
  10793 C           7.5912   21.1766   80.1225 C.3   10746  UNL10746    0.0000
  10794 C          52.0257   45.4752   30.9637 C.3   10747  UNL10747    0.0000
  10795 C          75.3982   45.4752    7.5912 C.3   10748  UNL10748    0.0000
  10796 C          35.6880   21.1766   52.0257 C.3   10749  UNL10749    0.0000
  10797 C          80.1225    1.0407   14.6261 C.3   10750  UNL10750    0.0000
  10798 C          30.9637   65.6111   59.0606 C.3   10751  UNL10751    0.0000
  10799 C          52.0257   30.9637   45.4752 C.3   10752  UNL10752    0.0000
  10800 C           7.5912   80.1225   21.1766 C.3   10753  UNL10753    0.0000
  10801 C          59.0606   35.6880    1.0407 C.3   10754  UNL10754    0.0000
  10802 C          14.6261   75.3982   65.6111 C.3   10755  UNL10755    0.0000
  10803 C           1.0407    7.5912   30.9637 C.3   10756  UNL10756    0.0000
  10804 C          65.6111   52.0257   80.1225 C.3   10757  UNL10757    0.0000
  10805 C          45.4752   14.6261   35.6880 C.3   10758  UNL10758    0.0000
  10806 C          21.1766   59.0606   75.3982 C.3   10759  UNL10759    0.0000
  10807 C          23.2579    8.7465   36.8433 C.3   10760  UNL10760    0.0000
  10808 C          87.8283   57.9053   81.2778 C.3   10761  UNL10761    0.0000
  10809 C          67.6924   13.4708   29.8084 C.3   10762  UNL10762    0.0000
  10810 C          43.3938   53.1810   74.2429 C.3   10763  UNL10763    0.0000
  10811 C           8.7465   74.2429   87.8283 C.3   10764  UNL10764    0.0000
  10812 C          57.9053   29.8084   23.2579 C.3   10765  UNL10765    0.0000
  10813 C          13.4708   81.2778   43.3938 C.3   10766  UNL10766    0.0000
  10814 C          53.1810   36.8433   67.6924 C.3   10767  UNL10767    0.0000
  10815 C          74.2429   23.2579   13.4708 C.3   10768  UNL10768    0.0000
  10816 C          29.8084   87.8283   53.1810 C.3   10769  UNL10769    0.0000
  10817 C          81.2778   67.6924    8.7465 C.3   10770  UNL10770    0.0000
  10818 C          36.8433   43.3938   57.9053 C.3   10771  UNL10771    0.0000
  10819 C          57.9053   87.8283   81.2778 C.3   10772  UNL10772    0.0000
  10820 C           8.7465   23.2579   36.8433 C.3   10773  UNL10773    0.0000
  10821 C          53.1810   43.3938   74.2429 C.3   10774  UNL10774    0.0000
  10822 C          13.4708   67.6924   29.8084 C.3   10775  UNL10775    0.0000
  10823 C          81.2778   13.4708   43.3938 C.3   10776  UNL10776    0.0000
  10824 C          36.8433   53.1810   67.6924 C.3   10777  UNL10777    0.0000
  10825 C          74.2429    8.7465   87.8283 C.3   10778  UNL10778    0.0000
  10826 C          29.8084   57.9053   23.2579 C.3   10779  UNL10779    0.0000
  10827 C          43.3938   36.8433   57.9053 C.3   10780  UNL10780    0.0000
  10828 C          67.6924   81.2778    8.7465 C.3   10781  UNL10781    0.0000
  10829 C          87.8283   29.8084   53.1810 C.3   10782  UNL10782    0.0000
  10830 C          23.2579   74.2429   13.4708 C.3   10783  UNL10783    0.0000
  10831 C          21.1766   35.6880   52.0257 C.3   10784  UNL10784    0.0000
  10832 C          45.4752   75.3982    7.5912 C.3   10785  UNL10785    0.0000
  10833 C          65.6111   30.9637   59.0606 C.3   10786  UNL10786    0.0000
  10834 C           1.0407   80.1225   14.6261 C.3   10787  UNL10787    0.0000
  10835 C          35.6880   59.0606    1.0407 C.3   10788  UNL10788    0.0000
  10836 C          75.3982   14.6261   65.6111 C.3   10789  UNL10789    0.0000
  10837 C          30.9637   52.0257   45.4752 C.3   10790  UNL10790    0.0000
  10838 C          80.1225    7.5912   21.1766 C.3   10791  UNL10791    0.0000
  10839 C          59.0606   21.1766   75.3982 C.3   10792  UNL10792    0.0000
  10840 C          14.6261   45.4752   35.6880 C.3   10793  UNL10793    0.0000
  10841 C          52.0257   65.6111   80.1225 C.3   10794  UNL10794    0.0000
  10842 C           7.5912    1.0407   30.9637 C.3   10795  UNL10795    0.0000
  10843 C          30.9637    1.0407    7.5912 C.3   10796  UNL10796    0.0000
  10844 C          80.1225   65.6111   52.0257 C.3   10797  UNL10797    0.0000
  10845 C          35.6880   45.4752   14.6261 C.3   10798  UNL10798    0.0000
  10846 C          75.3982   21.1766   59.0606 C.3   10799  UNL10799    0.0000
  10847 C           7.5912   75.3982   45.4752 C.3   10800  UNL10800    0.0000
  10848 C          52.0257   35.6880   21.1766 C.3   10801  UNL10801    0.0000
  10849 C          14.6261   80.1225    1.0407 C.3   10802  UNL10802    0.0000
  10850 C          59.0606   30.9637   65.6111 C.3   10803  UNL10803    0.0000
  10851 C          45.4752   52.0257   30.9637 C.3   10804  UNL10804    0.0000
  10852 C          21.1766    7.5912   80.1225 C.3   10805  UNL10805    0.0000
  10853 C           1.0407   59.0606   35.6880 C.3   10806  UNL10806    0.0000
  10854 C          65.6111   14.6261   75.3982 C.3   10807  UNL10807    0.0000
  10855 C          67.6924   53.1810   36.8433 C.3   10808  UNL10808    0.0000
  10856 C          43.3938   13.4708   81.2778 C.3   10809  UNL10809    0.0000
  10857 C          23.2579   57.9053   29.8084 C.3   10810  UNL10810    0.0000
  10858 C          87.8283    8.7465   74.2429 C.3   10811  UNL10811    0.0000
  10859 C          53.1810   29.8084   87.8283 C.3   10812  UNL10812    0.0000
  10860 C          13.4708   74.2429   23.2579 C.3   10813  UNL10813    0.0000
  10861 C          57.9053   36.8433   43.3938 C.3   10814  UNL10814    0.0000
  10862 C           8.7465   81.2778   67.6924 C.3   10815  UNL10815    0.0000
  10863 C          29.8084   67.6924   13.4708 C.3   10816  UNL10816    0.0000
  10864 C          74.2429   43.3938   53.1810 C.3   10817  UNL10817    0.0000
  10865 C          36.8433   23.2579    8.7465 C.3   10818  UNL10818    0.0000
  10866 C          81.2778   87.8283   57.9053 C.3   10819  UNL10819    0.0000
  10867 C          57.9053   43.3938   36.8433 C.3   10820  UNL10820    0.0000
  10868 C           8.7465   67.6924   81.2778 C.3   10821  UNL10821    0.0000
  10869 C          53.1810   87.8283   29.8084 C.3   10822  UNL10822    0.0000
  10870 C          13.4708   23.2579   74.2429 C.3   10823  UNL10823    0.0000
  10871 C          81.2778   57.9053   87.8283 C.3   10824  UNL10824    0.0000
  10872 C          36.8433    8.7465   23.2579 C.3   10825  UNL10825    0.0000
  10873 C          74.2429   53.1810   43.3938 C.3   10826  UNL10826    0.0000
  10874 C          29.8084   13.4708   67.6924 C.3   10827  UNL10827    0.0000
  10875 C          43.3938   81.2778   13.4708 C.3   10828  UNL10828    0.0000
  10876 C          67.6924   36.8433   53.1810 C.3   10829  UNL10829    0.0000
  10877 C          87.8283   74.2429    8.7465 C.3   10830  UNL10830    0.0000
  10878 C          23.2579   29.8084   57.9053 C.3   10831  UNL10831    0.0000
  10879 C          21.1766   80.1225    7.5912 C.3   10832  UNL10832    0.0000
  10880 C          45.4752   30.9637   52.0257 C.3   10833  UNL10833    0.0000
  10881 C          65.6111   75.3982   14.6261 C.3   10834  UNL10834    0.0000
  10882 C           1.0407   35.6880   59.0606 C.3   10835  UNL10835    0.0000
  10883 C          35.6880   14.6261   45.4752 C.3   10836  UNL10836    0.0000
  10884 C          75.3982   59.0606   21.1766 C.3   10837  UNL10837    0.0000
  10885 C          30.9637    7.5912    1.0407 C.3   10838  UNL10838    0.0000
  10886 C          80.1225   52.0257   65.6111 C.3   10839  UNL10839    0.0000
  10887 C          59.0606   65.6111   30.9637 C.3   10840  UNL10840    0.0000
  10888 C          14.6261    1.0407   80.1225 C.3   10841  UNL10841    0.0000
  10889 C          52.0257   21.1766   35.6880 C.3   10842  UNL10842    0.0000
  10890 C           7.5912   45.4752   75.3982 C.3   10843  UNL10843    0.0000
  10891 C          30.9637   45.4752   52.0257 C.3   10844  UNL10844    0.0000
  10892 C          80.1225   21.1766    7.5912 C.3   10845  UNL10845    0.0000
  10893 C          35.6880    1.0407   59.0606 C.3   10846  UNL10846    0.0000
  10894 C          75.3982   65.6111   14.6261 C.3   10847  UNL10847    0.0000
  10895 C           7.5912   30.9637    1.0407 C.3   10848  UNL10848    0.0000
  10896 C          52.0257   80.1225   65.6111 C.3   10849  UNL10849    0.0000
  10897 C          14.6261   35.6880   45.4752 C.3   10850  UNL10850    0.0000
  10898 C          59.0606   75.3982   21.1766 C.3   10851  UNL10851    0.0000
  10899 C          45.4752    7.5912   75.3982 C.3   10852  UNL10852    0.0000
  10900 C          21.1766   52.0257   35.6880 C.3   10853  UNL10853    0.0000
  10901 C           1.0407   14.6261   80.1225 C.3   10854  UNL10854    0.0000
  10902 C          65.6111   59.0606   30.9637 C.3   10855  UNL10855    0.0000
  10903 C          67.6924    8.7465   81.2778 C.3   10856  UNL10856    0.0000
  10904 C          43.3938   57.9053   36.8433 C.3   10857  UNL10857    0.0000
  10905 C          23.2579   13.4708   74.2429 C.3   10858  UNL10858    0.0000
  10906 C          87.8283   53.1810   29.8084 C.3   10859  UNL10859    0.0000
  10907 C          53.1810   74.2429   43.3938 C.3   10860  UNL10860    0.0000
  10908 C          13.4708   29.8084   67.6924 C.3   10861  UNL10861    0.0000
  10909 C          57.9053   81.2778   87.8283 C.3   10862  UNL10862    0.0000
  10910 C           8.7465   36.8433   23.2579 C.3   10863  UNL10863    0.0000
  10911 C          29.8084   23.2579   57.9053 C.3   10864  UNL10864    0.0000
  10912 C          74.2429   87.8283    8.7465 C.3   10865  UNL10865    0.0000
  10913 C          36.8433   67.6924   53.1810 C.3   10866  UNL10866    0.0000
  10914 C          81.2778   43.3938   13.4708 C.3   10867  UNL10867    0.0000
  10915 O          39.0348   85.5062   25.5801 O.3   10868  HOH10868    0.0000
  10916 O          83.4693   70.0145   85.5062 O.3   10869  HOH10869    0.0000
  10917 O          72.0514   41.0717   41.0717 O.3   10870  HOH10870    0.0000
  10918 O          70.0145   27.6169   25.5801 O.3   10871  HOH10871    0.0000
  10919 O          25.5801   39.0348   85.5062 O.3   10872  HOH10872    0.0000
  10920 O          85.5062   83.4693   70.0145 O.3   10873  HOH10873    0.0000
  10921 O          41.0717   72.0514   41.0717 O.3   10874  HOH10874    0.0000
  10922 O          25.5801   70.0145   27.6169 O.3   10875  HOH10875    0.0000
  10923 O          85.5062   25.5801   39.0348 O.3   10876  HOH10876    0.0000
  10924 O          70.0145   85.5062   83.4693 O.3   10877  HOH10877    0.0000
  10925 O          41.0717   41.0717   72.0514 O.3   10878  HOH10878    0.0000
  10926 O           3.3628   49.8342   63.2889 O.3   10879  HOH10879    0.0000
  10927 O          63.2889   61.2521   18.8544 O.3   10880  HOH10880    0.0000
  10928 O          47.7973   16.8176   47.7973 O.3   10881  HOH10881    0.0000
  10929 O          18.8544    5.3997    3.3628 O.3   10882  HOH10882    0.0000
  10930 O           5.3997    3.3628   18.8544 O.3   10883  HOH10883    0.0000
  10931 O          16.8176   47.7973   47.7973 O.3   10884  HOH10884    0.0000
  10932 O          61.2521   18.8544   63.2889 O.3   10885  HOH10885    0.0000
  10933 O          49.8342   63.2889    3.3628 O.3   10886  HOH10886    0.0000
  10934 O          47.7973   47.7973   16.8176 O.3   10887  HOH10887    0.0000
  10935 O           3.3628   18.8544    5.3997 O.3   10888  HOH10888    0.0000
  10936 O          63.2889    3.3628   49.8342 O.3   10889  HOH10889    0.0000
  10937 O          18.8544   63.2889   61.2521 O.3   10890  HOH10890    0.0000
  10938 O          61.2521   63.2889   18.8544 O.3   10891  HOH10891    0.0000
  10939 O          49.8342    3.3628   63.2889 O.3   10892  HOH10892    0.0000
  10940 O           5.3997   18.8544    3.3628 O.3   10893  HOH10893    0.0000
  10941 O          18.8544   61.2521   63.2889 O.3   10894  HOH10894    0.0000
  10942 O          63.2889   49.8342    3.3628 O.3   10895  HOH10895    0.0000
  10943 O           3.3628    5.3997   18.8544 O.3   10896  HOH10896    0.0000
  10944 O          63.2889   18.8544   61.2521 O.3   10897  HOH10897    0.0000
  10945 O           3.3628   63.2889   49.8342 O.3   10898  HOH10898    0.0000
  10946 O          18.8544    3.3628    5.3997 O.3   10899  HOH10899    0.0000
  10947 O          85.5062   39.0348   25.5801 O.3   10900  HOH10900    0.0000
  10948 O          25.5801   27.6169   70.0145 O.3   10901  HOH10901    0.0000
  10949 O          70.0145   83.4693   85.5062 O.3   10902  HOH10902    0.0000
  10950 O          83.4693   85.5062   70.0145 O.3   10903  HOH10903    0.0000
  10951 O          27.6169   70.0145   25.5801 O.3   10904  HOH10904    0.0000
  10952 O          39.0348   25.5801   85.5062 O.3   10905  HOH10905    0.0000
  10953 O          85.5062   70.0145   83.4693 O.3   10906  HOH10906    0.0000
  10954 O          25.5801   85.5062   39.0348 O.3   10907  HOH10907    0.0000
  10955 O          70.0145   25.5801   27.6169 O.3   10908  HOH10908    0.0000
  10956 O          39.0348   41.0717   70.0145 O.3   10909  HOH10909    0.0000
  10957 O          83.4693   25.5801   41.0717 O.3   10910  HOH10910    0.0000
  10958 O          72.0514   85.5062   85.5062 O.3   10911  HOH10911    0.0000
  10959 O          70.0145   72.0514   70.0145 O.3   10912  HOH10912    0.0000
  10960 O          25.5801   83.4693   41.0717 O.3   10913  HOH10913    0.0000
  10961 O          41.0717   27.6169   85.5062 O.3   10914  HOH10914    0.0000
  10962 O          25.5801   25.5801   72.0514 O.3   10915  HOH10915    0.0000
  10963 O          70.0145   41.0717   39.0348 O.3   10916  HOH10916    0.0000
  10964 O          41.0717   85.5062   27.6169 O.3   10917  HOH10917    0.0000
  10965 O          63.2889   16.8176   63.2889 O.3   10918  HOH10918    0.0000
  10966 O          47.7973   61.2521    3.3628 O.3   10919  HOH10919    0.0000
  10967 O          18.8544   49.8342   47.7973 O.3   10920  HOH10920    0.0000
  10968 O           5.3997   47.7973   63.2889 O.3   10921  HOH10921    0.0000
  10969 O          16.8176    3.3628    3.3628 O.3   10922  HOH10922    0.0000
  10970 O          49.8342   18.8544   47.7973 O.3   10923  HOH10923    0.0000
  10971 O          47.7973    3.3628   61.2521 O.3   10924  HOH10924    0.0000
  10972 O          63.2889   47.7973    5.3997 O.3   10925  HOH10925    0.0000
  10973 O          18.8544   18.8544   16.8176 O.3   10926  HOH10926    0.0000
  10974 O          49.8342   47.7973   18.8544 O.3   10927  HOH10927    0.0000
  10975 O           5.3997   63.2889   47.7973 O.3   10928  HOH10928    0.0000
  10976 O          18.8544   16.8176   18.8544 O.3   10929  HOH10929    0.0000
  10977 O          63.2889    5.3997   47.7973 O.3   10930  HOH10930    0.0000
  10978 O          63.2889   63.2889   16.8176 O.3   10931  HOH10931    0.0000
  10979 O          18.8544   47.7973   49.8342 O.3   10932  HOH10932    0.0000
  10980 O          25.5801   72.0514   25.5801 O.3   10933  HOH10933    0.0000
  10981 O          70.0145   39.0348   41.0717 O.3   10934  HOH10934    0.0000
  10982 O          83.4693   41.0717   25.5801 O.3   10935  HOH10935    0.0000
  10983 O          39.0348   70.0145   41.0717 O.3   10936  HOH10936    0.0000
  10984 O          25.5801   41.0717   83.4693 O.3   10937  HOH10937    0.0000
  10985 O          70.0145   70.0145   72.0514 O.3   10938  HOH10938    0.0000
  10986 O          72.0514   25.5801   25.5801 O.3   10939  HOH10939    0.0000
  10987 O          27.6169   41.0717   85.5062 O.3   10940  HOH10940    0.0000
  10988 O          41.0717   83.4693   25.5801 O.3   10941  HOH10941    0.0000
  10989 O          85.5062   72.0514   85.5062 O.3   10942  HOH10942    0.0000
  10990 O          41.0717   25.5801   83.4693 O.3   10943  HOH10943    0.0000
  10991 O          85.5062   41.0717   27.6169 O.3   10944  HOH10944    0.0000
  10992 O          47.7973   49.8342   18.8544 O.3   10945  HOH10945    0.0000
  10993 O           3.3628   16.8176    3.3628 O.3   10946  HOH10946    0.0000
  10994 O          61.2521   47.7973    3.3628 O.3   10947  HOH10947    0.0000
  10995 O          16.8176   18.8544   18.8544 O.3   10948  HOH10948    0.0000
  10996 O           3.3628   47.7973   61.2521 O.3   10949  HOH10949    0.0000
  10997 O          47.7973   18.8544   49.8342 O.3   10950  HOH10950    0.0000
  10998 O          16.8176   63.2889   63.2889 O.3   10951  HOH10951    0.0000
  10999 O          47.7973    5.3997   63.2889 O.3   10952  HOH10952    0.0000
  11000 O          47.7973   63.2889    5.3997 O.3   10953  HOH10953    0.0000
  11001 O          41.0717   39.0348   70.0145 O.3   10954  HOH10954    0.0000
  11002 O          72.0514   70.0145   70.0145 O.3   10955  HOH10955    0.0000
  11003 O          41.0717   70.0145   39.0348 O.3   10956  HOH10956    0.0000
  11004 O          27.6169   85.5062   41.0717 O.3   10957  HOH10957    0.0000
  11005 O          85.5062   27.6169   41.0717 O.3   10958  HOH10958    0.0000
  11006 O          85.5062   85.5062   72.0514 O.3   10959  HOH10959    0.0000
  11007 O           3.3628   61.2521   47.7973 O.3   10960  HOH10960    0.0000
  11008 O          61.2521    3.3628   47.7973 O.3   10961  HOH10961    0.0000
  11009 O           3.3628    3.3628   16.8176 O.3   10962  HOH10962    0.0000
  11010 O          44.6895    3.5921   21.9622 O.3   10963  HOH10963    0.0000
  11011 O           0.2551   63.0597    0.2551 O.3   10964  HOH10964    0.0000
  11012 O          66.3967   48.0266   44.6895 O.3   10965  HOH10965    0.0000
  11013 O          66.3967   21.9622   18.6252 O.3   10966  HOH10966    0.0000
  11014 O          21.9622   44.6895    3.5921 O.3   10967  HOH10967    0.0000
  11015 O           0.2551    0.2551   63.0597 O.3   10968  HOH10968    0.0000
  11016 O          44.6895   66.3967   48.0266 O.3   10969  HOH10969    0.0000
  11017 O          18.6252   66.3967   21.9622 O.3   10970  HOH10970    0.0000
  11018 O           3.5921   21.9622   44.6895 O.3   10971  HOH10971    0.0000
  11019 O          63.0597    0.2551    0.2551 O.3   10972  HOH10972    0.0000
  11020 O          48.0266   44.6895   66.3967 O.3   10973  HOH10973    0.0000
  11021 O          85.2769   44.1794   66.9068 O.3   10974  HOH10974    0.0000
  11022 O          70.2438   66.9068   22.4723 O.3   10975  HOH10975    0.0000
  11023 O          40.8424   22.4723   44.1794 O.3   10976  HOH10976    0.0000
  11024 O          25.8093   88.6139   88.6139 O.3   10977  HOH10977    0.0000
  11025 O          88.6139   88.6139   25.8093 O.3   10978  HOH10978    0.0000
  11026 O          22.4723   44.1794   40.8424 O.3   10979  HOH10979    0.0000
  11027 O          66.9068   22.4723   70.2438 O.3   10980  HOH10980    0.0000
  11028 O          44.1794   66.9068   85.2769 O.3   10981  HOH10981    0.0000
  11029 O          44.1794   40.8424   22.4723 O.3   10982  HOH10982    0.0000
  11030 O          88.6139   25.8093   88.6139 O.3   10983  HOH10983    0.0000
  11031 O          66.9068   85.2769   44.1794 O.3   10984  HOH10984    0.0000
  11032 O          22.4723   70.2438   66.9068 O.3   10985  HOH10985    0.0000
  11033 O          66.9068   70.2438   22.4723 O.3   10986  HOH10986    0.0000
  11034 O          44.1794   85.2769   66.9068 O.3   10987  HOH10987    0.0000
  11035 O          22.4723   40.8424   44.1794 O.3   10988  HOH10988    0.0000
  11036 O          22.4723   66.9068   70.2438 O.3   10989  HOH10989    0.0000
  11037 O          66.9068   44.1794   85.2769 O.3   10990  HOH10990    0.0000
  11038 O          44.1794   22.4723   40.8424 O.3   10991  HOH10991    0.0000
  11039 O          70.2438   22.4723   66.9068 O.3   10992  HOH10992    0.0000
  11040 O          85.2769   66.9068   44.1794 O.3   10993  HOH10993    0.0000
  11041 O          40.8424   44.1794   22.4723 O.3   10994  HOH10994    0.0000
  11042 O           3.5921   44.6895   21.9622 O.3   10995  HOH10995    0.0000
  11043 O          18.6252   21.9622   66.3967 O.3   10996  HOH10996    0.0000
  11044 O          48.0266   66.3967   44.6895 O.3   10997  HOH10997    0.0000
  11045 O          66.3967   44.6895   48.0266 O.3   10998  HOH10998    0.0000
  11046 O          21.9622   66.3967   18.6252 O.3   10999  HOH10999    0.0000
  11047 O          44.6895   21.9622    3.5921 O.3   11000  HOH11000    0.0000
  11048 O          44.6895   48.0266   66.3967 O.3   11001  HOH11001    0.0000
  11049 O          21.9622    3.5921   44.6895 O.3   11002  HOH11002    0.0000
  11050 O          66.3967   18.6252   21.9622 O.3   11003  HOH11003    0.0000
  11051 O          21.9622   63.0597   21.9622 O.3   11004  HOH11004    0.0000
  11052 O           0.2551   18.6252   44.6895 O.3   11005  HOH11005    0.0000
  11053 O          66.3967    3.5921    0.2551 O.3   11006  HOH11006    0.0000
  11054 O          66.3967   66.3967   63.0597 O.3   11007  HOH11007    0.0000
  11055 O          21.9622    0.2551   48.0266 O.3   11008  HOH11008    0.0000
  11056 O           0.2551   44.6895   18.6252 O.3   11009  HOH11009    0.0000
  11057 O           3.5921   66.3967    0.2551 O.3   11010  HOH11010    0.0000
  11058 O          63.0597   44.6895   44.6895 O.3   11011  HOH11011    0.0000
  11059 O          48.0266    0.2551   21.9622 O.3   11012  HOH11012    0.0000
  11060 O          85.2769   88.6139   22.4723 O.3   11013  HOH11013    0.0000
  11061 O          40.8424   66.9068   88.6139 O.3   11014  HOH11014    0.0000
  11062 O          25.8093   44.1794   44.1794 O.3   11015  HOH11015    0.0000
  11063 O          88.6139   44.1794   70.2438 O.3   11016  HOH11016    0.0000
  11064 O          22.4723   88.6139   85.2769 O.3   11017  HOH11017    0.0000
  11065 O          66.9068   66.9068   25.8093 O.3   11018  HOH11018    0.0000
  11066 O          88.6139   70.2438   44.1794 O.3   11019  HOH11019    0.0000
  11067 O          66.9068   40.8424   88.6139 O.3   11020  HOH11020    0.0000
  11068 O          22.4723   25.8093   22.4723 O.3   11021  HOH11021    0.0000
  11069 O          66.9068   25.8093   66.9068 O.3   11022  HOH11022    0.0000
  11070 O          22.4723   85.2769   88.6139 O.3   11023  HOH11023    0.0000
  11071 O          22.4723   22.4723   25.8093 O.3   11024  HOH11024    0.0000
  11072 O          66.9068   88.6139   40.8424 O.3   11025  HOH11025    0.0000
  11073 O          85.2769   22.4723   88.6139 O.3   11026  HOH11026    0.0000
  11074 O          40.8424   88.6139   66.9068 O.3   11027  HOH11027    0.0000
  11075 O           3.5921    0.2551   66.3967 O.3   11028  HOH11028    0.0000
  11076 O          48.0266   21.9622    0.2551 O.3   11029  HOH11029    0.0000
  11077 O          66.3967    0.2551    3.5921 O.3   11030  HOH11030    0.0000
  11078 O          21.9622   21.9622   63.0597 O.3   11031  HOH11031    0.0000
  11079 O          21.9622   48.0266    0.2551 O.3   11032  HOH11032    0.0000
  11080 O          66.3967   63.0597   66.3967 O.3   11033  HOH11033    0.0000
  11081 O           0.2551    3.5921   66.3967 O.3   11034  HOH11034    0.0000
  11082 O          44.6895   63.0597   44.6895 O.3   11035  HOH11035    0.0000
  11083 O          44.6895    0.2551   18.6252 O.3   11036  HOH11036    0.0000
  11084 O           0.2551   66.3967    3.5921 O.3   11037  HOH11037    0.0000
  11085 O          63.0597   66.3967   66.3967 O.3   11038  HOH11038    0.0000
  11086 O          18.6252    0.2551   44.6895 O.3   11039  HOH11039    0.0000
  11087 O          25.8093   66.9068   66.9068 O.3   11040  HOH11040    0.0000
  11088 O          70.2438   88.6139   44.1794 O.3   11041  HOH11041    0.0000
  11089 O          44.1794   88.6139   70.2438 O.3   11042  HOH11042    0.0000
  11090 O          88.6139   66.9068   40.8424 O.3   11043  HOH11043    0.0000
  11091 O          88.6139   40.8424   66.9068 O.3   11044  HOH11044    0.0000
  11092 O          44.1794   25.8093   44.1794 O.3   11045  HOH11045    0.0000
  11093 O          88.6139   85.2769   22.4723 O.3   11046  HOH11046    0.0000
  11094 O          88.6139   22.4723   85.2769 O.3   11047  HOH11047    0.0000
  11095 O          25.8093   22.4723   22.4723 O.3   11048  HOH11048    0.0000
  11096 O          63.0597   21.9622   21.9622 O.3   11049  HOH11049    0.0000
  11097 O           0.2551   21.9622   48.0266 O.3   11050  HOH11050    0.0000
  11098 O           0.2551   48.0266   21.9622 O.3   11051  HOH11051    0.0000
  11099 O          44.6895   18.6252    0.2551 O.3   11052  HOH11052    0.0000
  11100 O          44.6895   44.6895   63.0597 O.3   11053  HOH11053    0.0000
  11101 O          18.6252   44.6895    0.2551 O.3   11054  HOH11054    0.0000
  11102 O          70.2438   44.1794   88.6139 O.3   11055  HOH11055    0.0000
  11103 O          44.1794   44.1794   25.8093 O.3   11056  HOH11056    0.0000
  11104 O          44.1794   70.2438   88.6139 O.3   11057  HOH11057    0.0000
  11105 O          47.1192   88.5286   31.5485 O.3   11058  HOH11058    0.0000
  11106 O           2.6847   66.9921   79.5377 O.3   11059  HOH11059    0.0000
  11107 O          63.9670   44.0941   35.1033 O.3   11060  HOH11060    0.0000
  11108 O          75.9830   19.5325   22.5576 O.3   11061  HOH11061    0.0000
  11109 O          31.5485   47.1192   88.5286 O.3   11062  HOH11062    0.0000
  11110 O          79.5377    2.6847   66.9921 O.3   11063  HOH11063    0.0000
  11111 O          35.1033   63.9670   44.0941 O.3   11064  HOH11064    0.0000
  11112 O          22.5576   75.9830   19.5325 O.3   11065  HOH11065    0.0000
  11113 O          88.5286   31.5485   47.1192 O.3   11066  HOH11066    0.0000
  11114 O          66.9921   79.5377    2.6847 O.3   11067  HOH11067    0.0000
  11115 O          44.0941   35.1033   63.9670 O.3   11068  HOH11068    0.0000
  11116 O           0.3404   41.7498   57.3205 O.3   11069  HOH11069    0.0000
  11117 O          66.3114   69.3365   12.8860 O.3   11070  HOH11070    0.0000
  11118 O          44.7749   24.9020   53.7657 O.3   11071  HOH11071    0.0000
  11119 O          21.8769   86.1843    9.3312 O.3   11072  HOH11072    0.0000
  11120 O          86.1843    9.3312   21.8769 O.3   11073  HOH11073    0.0000
  11121 O          24.9020   53.7657   44.7749 O.3   11074  HOH11074    0.0000
  11122 O          69.3365   12.8860   66.3114 O.3   11075  HOH11075    0.0000
  11123 O          41.7498   57.3205    0.3404 O.3   11076  HOH11076    0.0000
  11124 O          53.7657   44.7749   24.9020 O.3   11077  HOH11077    0.0000
  11125 O           9.3312   21.8769   86.1843 O.3   11078  HOH11078    0.0000
  11126 O          57.3205    0.3404   41.7498 O.3   11079  HOH11079    0.0000
  11127 O          12.8860   66.3114   69.3365 O.3   11080  HOH11080    0.0000
  11128 O          69.3365   66.3114   12.8860 O.3   11081  HOH11081    0.0000
  11129 O          41.7498    0.3404   57.3205 O.3   11082  HOH11082    0.0000
  11130 O          86.1843   21.8769    9.3312 O.3   11083  HOH11083    0.0000
  11131 O          24.9020   44.7749   53.7657 O.3   11084  HOH11084    0.0000
  11132 O          12.8860   69.3365   66.3114 O.3   11085  HOH11085    0.0000
  11133 O          57.3205   41.7498    0.3404 O.3   11086  HOH11086    0.0000
  11134 O           9.3312   86.1843   21.8769 O.3   11087  HOH11087    0.0000
  11135 O          53.7657   24.9020   44.7749 O.3   11088  HOH11088    0.0000
  11136 O          66.3114   12.8860   69.3365 O.3   11089  HOH11089    0.0000
  11137 O           0.3404   57.3205   41.7498 O.3   11090  HOH11090    0.0000
  11138 O          21.8769    9.3312   86.1843 O.3   11091  HOH11091    0.0000
  11139 O          44.7749   53.7657   24.9020 O.3   11092  HOH11092    0.0000
  11140 O          88.5286   47.1192   31.5485 O.3   11093  HOH11093    0.0000
  11141 O          22.5576   19.5325   75.9830 O.3   11094  HOH11094    0.0000
  11142 O          44.0941   63.9670   35.1033 O.3   11095  HOH11095    0.0000
  11143 O          66.9921    2.6847   79.5377 O.3   11096  HOH11096    0.0000
  11144 O           2.6847   79.5377   66.9921 O.3   11097  HOH11097    0.0000
  11145 O          63.9670   35.1033   44.0941 O.3   11098  HOH11098    0.0000
  11146 O          19.5325   75.9830   22.5576 O.3   11099  HOH11099    0.0000
  11147 O          47.1192   31.5485   88.5286 O.3   11100  HOH11100    0.0000
  11148 O          35.1033   44.0941   63.9670 O.3   11101  HOH11101    0.0000
  11149 O          79.5377   66.9921    2.6847 O.3   11102  HOH11102    0.0000
  11150 O          31.5485   88.5286   47.1192 O.3   11103  HOH11103    0.0000
  11151 O          75.9830   22.5576   19.5325 O.3   11104  HOH11104    0.0000
  11152 O          19.5325   66.9921   31.5485 O.3   11105  HOH11105    0.0000
  11153 O          47.1192   44.0941   75.9830 O.3   11106  HOH11106    0.0000
  11154 O           2.6847   22.5576   35.1033 O.3   11107  HOH11107    0.0000
  11155 O          63.9670   88.5286   79.5377 O.3   11108  HOH11108    0.0000
  11156 O          75.9830   63.9670   66.9921 O.3   11109  HOH11109    0.0000
  11157 O          31.5485    2.6847   44.0941 O.3   11110  HOH11110    0.0000
  11158 O          79.5377   47.1192   22.5576 O.3   11111  HOH11111    0.0000
  11159 O          35.1033   19.5325   88.5286 O.3   11112  HOH11112    0.0000
  11160 O          22.5576   31.5485   63.9670 O.3   11113  HOH11113    0.0000
  11161 O          88.5286   75.9830    2.6847 O.3   11114  HOH11114    0.0000
  11162 O          66.9921   35.1033   47.1192 O.3   11115  HOH11115    0.0000
  11163 O          44.0941   79.5377   19.5325 O.3   11116  HOH11116    0.0000
  11164 O           0.3404   86.1843   12.8860 O.3   11117  HOH11117    0.0000
  11165 O          66.3114   24.9020   57.3205 O.3   11118  HOH11118    0.0000
  11166 O          44.7749   69.3365    9.3312 O.3   11119  HOH11119    0.0000
  11167 O          21.8769   41.7498   53.7657 O.3   11120  HOH11120    0.0000
  11168 O          86.1843   53.7657   66.3114 O.3   11121  HOH11121    0.0000
  11169 O          24.9020    9.3312    0.3404 O.3   11122  HOH11122    0.0000
  11170 O          69.3365   57.3205   21.8769 O.3   11123  HOH11123    0.0000
  11171 O          41.7498   12.8860   44.7749 O.3   11124  HOH11124    0.0000
  11172 O          53.7657    0.3404   69.3365 O.3   11125  HOH11125    0.0000
  11173 O           9.3312   66.3114   41.7498 O.3   11126  HOH11126    0.0000
  11174 O          57.3205   44.7749   86.1843 O.3   11127  HOH11127    0.0000
  11175 O          12.8860   21.8769   24.9020 O.3   11128  HOH11128    0.0000
  11176 O          69.3365   21.8769   57.3205 O.3   11129  HOH11129    0.0000
  11177 O          41.7498   44.7749   12.8860 O.3   11130  HOH11130    0.0000
  11178 O          86.1843   66.3114   53.7657 O.3   11131  HOH11131    0.0000
  11179 O          24.9020    0.3404    9.3312 O.3   11132  HOH11132    0.0000
  11180 O          12.8860   24.9020   21.8769 O.3   11133  HOH11133    0.0000
  11181 O          57.3205   86.1843   44.7749 O.3   11134  HOH11134    0.0000
  11182 O           9.3312   41.7498   66.3114 O.3   11135  HOH11135    0.0000
  11183 O          53.7657   69.3365    0.3404 O.3   11136  HOH11136    0.0000
  11184 O          66.3114   57.3205   24.9020 O.3   11137  HOH11137    0.0000
  11185 O           0.3404   12.8860   86.1843 O.3   11138  HOH11138    0.0000
  11186 O          21.8769   53.7657   41.7498 O.3   11139  HOH11139    0.0000
  11187 O          44.7749    9.3312   69.3365 O.3   11140  HOH11140    0.0000
  11188 O          88.5286    2.6847   75.9830 O.3   11141  HOH11141    0.0000
  11189 O          22.5576   63.9670   31.5485 O.3   11142  HOH11142    0.0000
  11190 O          44.0941   19.5325   79.5377 O.3   11143  HOH11143    0.0000
  11191 O          66.9921   47.1192   35.1033 O.3   11144  HOH11144    0.0000
  11192 O           2.6847   35.1033   22.5576 O.3   11145  HOH11145    0.0000
  11193 O          63.9670   79.5377   88.5286 O.3   11146  HOH11146    0.0000
  11194 O          19.5325   31.5485   66.9921 O.3   11147  HOH11147    0.0000
  11195 O          47.1192   75.9830   44.0941 O.3   11148  HOH11148    0.0000
  11196 O          35.1033   88.5286   19.5325 O.3   11149  HOH11149    0.0000
  11197 O          79.5377   22.5576   47.1192 O.3   11150  HOH11150    0.0000
  11198 O          31.5485   44.0941    2.6847 O.3   11151  HOH11151    0.0000
  11199 O          75.9830   66.9921   63.9670 O.3   11152  HOH11152    0.0000
  11200 O          63.9670   22.5576   31.5485 O.3   11153  HOH11153    0.0000
  11201 O           2.6847   88.5286   75.9830 O.3   11154  HOH11154    0.0000
  11202 O          47.1192   66.9921   35.1033 O.3   11155  HOH11155    0.0000
  11203 O          19.5325   44.0941   79.5377 O.3   11156  HOH11156    0.0000
  11204 O          31.5485   19.5325   66.9921 O.3   11157  HOH11157    0.0000
  11205 O          75.9830   47.1192   44.0941 O.3   11158  HOH11158    0.0000
  11206 O          35.1033    2.6847   22.5576 O.3   11159  HOH11159    0.0000
  11207 O          79.5377   63.9670   88.5286 O.3   11160  HOH11160    0.0000
  11208 O          66.9921   75.9830   63.9670 O.3   11161  HOH11161    0.0000
  11209 O          44.0941   31.5485    2.6847 O.3   11162  HOH11162    0.0000
  11210 O          22.5576   79.5377   47.1192 O.3   11163  HOH11163    0.0000
  11211 O          88.5286   35.1033   19.5325 O.3   11164  HOH11164    0.0000
  11212 O          44.7749   41.7498   12.8860 O.3   11165  HOH11165    0.0000
  11213 O          21.8769   69.3365   57.3205 O.3   11166  HOH11166    0.0000
  11214 O           0.3404   24.9020    9.3312 O.3   11167  HOH11167    0.0000
  11215 O          66.3114   86.1843   53.7657 O.3   11168  HOH11168    0.0000
  11216 O          41.7498    9.3312   66.3114 O.3   11169  HOH11169    0.0000
  11217 O          69.3365   53.7657    0.3404 O.3   11170  HOH11170    0.0000
  11218 O          24.9020   12.8860   21.8769 O.3   11171  HOH11171    0.0000
  11219 O          86.1843   57.3205   44.7749 O.3   11172  HOH11172    0.0000
  11220 O           9.3312   44.7749   69.3365 O.3   11173  HOH11173    0.0000
  11221 O          53.7657   21.8769   41.7498 O.3   11174  HOH11174    0.0000
  11222 O          12.8860    0.3404   86.1843 O.3   11175  HOH11175    0.0000
  11223 O          57.3205   66.3114   24.9020 O.3   11176  HOH11176    0.0000
  11224 O          24.9020   66.3114   57.3205 O.3   11177  HOH11177    0.0000
  11225 O          86.1843    0.3404   12.8860 O.3   11178  HOH11178    0.0000
  11226 O          41.7498   21.8769   53.7657 O.3   11179  HOH11179    0.0000
  11227 O          69.3365   44.7749    9.3312 O.3   11180  HOH11180    0.0000
  11228 O          57.3205   69.3365   21.8769 O.3   11181  HOH11181    0.0000
  11229 O          12.8860   41.7498   44.7749 O.3   11182  HOH11182    0.0000
  11230 O          53.7657   86.1843   66.3114 O.3   11183  HOH11183    0.0000
  11231 O           9.3312   24.9020    0.3404 O.3   11184  HOH11184    0.0000
  11232 O          21.8769   12.8860   24.9020 O.3   11185  HOH11185    0.0000
  11233 O          44.7749   57.3205   86.1843 O.3   11186  HOH11186    0.0000
  11234 O          66.3114    9.3312   41.7498 O.3   11187  HOH11187    0.0000
  11235 O           0.3404   53.7657   69.3365 O.3   11188  HOH11188    0.0000
  11236 O          44.0941   47.1192   75.9830 O.3   11189  HOH11189    0.0000
  11237 O          66.9921   19.5325   31.5485 O.3   11190  HOH11190    0.0000
  11238 O          88.5286   63.9670   79.5377 O.3   11191  HOH11191    0.0000
  11239 O          22.5576    2.6847   35.1033 O.3   11192  HOH11192    0.0000
  11240 O          47.1192   79.5377   22.5576 O.3   11193  HOH11193    0.0000
  11241 O          19.5325   35.1033   88.5286 O.3   11194  HOH11194    0.0000
  11242 O          63.9670   75.9830   66.9921 O.3   11195  HOH11195    0.0000
  11243 O           2.6847   31.5485   44.0941 O.3   11196  HOH11196    0.0000
  11244 O          79.5377   44.0941   19.5325 O.3   11197  HOH11197    0.0000
  11245 O          35.1033   66.9921   47.1192 O.3   11198  HOH11198    0.0000
  11246 O          75.9830   88.5286    2.6847 O.3   11199  HOH11199    0.0000
  11247 O          31.5485   22.5576   63.9670 O.3   11200  HOH11200    0.0000
  11248 O          63.9670   66.9921   75.9830 O.3   11201  HOH11201    0.0000
  11249 O           2.6847   44.0941   31.5485 O.3   11202  HOH11202    0.0000
  11250 O          47.1192   22.5576   79.5377 O.3   11203  HOH11203    0.0000
  11251 O          19.5325   88.5286   35.1033 O.3   11204  HOH11204    0.0000
  11252 O          31.5485   63.9670   22.5576 O.3   11205  HOH11205    0.0000
  11253 O          75.9830    2.6847   88.5286 O.3   11206  HOH11206    0.0000
  11254 O          35.1033   47.1192   66.9921 O.3   11207  HOH11207    0.0000
  11255 O          79.5377   19.5325   44.0941 O.3   11208  HOH11208    0.0000
  11256 O          66.9921   31.5485   19.5325 O.3   11209  HOH11209    0.0000
  11257 O          44.0941   75.9830   47.1192 O.3   11210  HOH11210    0.0000
  11258 O          22.5576   35.1033    2.6847 O.3   11211  HOH11211    0.0000
  11259 O          88.5286   79.5377   63.9670 O.3   11212  HOH11212    0.0000
  11260 O          44.7749   86.1843   57.3205 O.3   11213  HOH11213    0.0000
  11261 O          21.8769   24.9020   12.8860 O.3   11214  HOH11214    0.0000
  11262 O           0.3404   69.3365   53.7657 O.3   11215  HOH11215    0.0000
  11263 O          66.3114   41.7498    9.3312 O.3   11216  HOH11216    0.0000
  11264 O          41.7498   53.7657   21.8769 O.3   11217  HOH11217    0.0000
  11265 O          69.3365    9.3312   44.7749 O.3   11218  HOH11218    0.0000
  11266 O          24.9020   57.3205   66.3114 O.3   11219  HOH11219    0.0000
  11267 O          86.1843   12.8860    0.3404 O.3   11220  HOH11220    0.0000
  11268 O           9.3312    0.3404   24.9020 O.3   11221  HOH11221    0.0000
  11269 O          53.7657   66.3114   86.1843 O.3   11222  HOH11222    0.0000
  11270 O          12.8860   44.7749   41.7498 O.3   11223  HOH11223    0.0000
  11271 O          57.3205   21.8769   69.3365 O.3   11224  HOH11224    0.0000
  11272 O          24.9020   21.8769   12.8860 O.3   11225  HOH11225    0.0000
  11273 O          86.1843   44.7749   57.3205 O.3   11226  HOH11226    0.0000
  11274 O          41.7498   66.3114    9.3312 O.3   11227  HOH11227    0.0000
  11275 O          69.3365    0.3404   53.7657 O.3   11228  HOH11228    0.0000
  11276 O          57.3205   24.9020   66.3114 O.3   11229  HOH11229    0.0000
  11277 O          12.8860   86.1843    0.3404 O.3   11230  HOH11230    0.0000
  11278 O          53.7657   41.7498   21.8769 O.3   11231  HOH11231    0.0000
  11279 O           9.3312   69.3365   44.7749 O.3   11232  HOH11232    0.0000
  11280 O          21.8769   57.3205   69.3365 O.3   11233  HOH11233    0.0000
  11281 O          44.7749   12.8860   41.7498 O.3   11234  HOH11234    0.0000
  11282 O          66.3114   53.7657   86.1843 O.3   11235  HOH11235    0.0000
  11283 O           0.3404    9.3312   24.9020 O.3   11236  HOH11236    0.0000
  11284 O          44.0941    2.6847   31.5485 O.3   11237  HOH11237    0.0000
  11285 O          66.9921   63.9670   75.9830 O.3   11238  HOH11238    0.0000
  11286 O          88.5286   19.5325   35.1033 O.3   11239  HOH11239    0.0000
  11287 O          22.5576   47.1192   79.5377 O.3   11240  HOH11240    0.0000
  11288 O          47.1192   35.1033   66.9921 O.3   11241  HOH11241    0.0000
  11289 O          19.5325   79.5377   44.0941 O.3   11242  HOH11242    0.0000
  11290 O          63.9670   31.5485   22.5576 O.3   11243  HOH11243    0.0000
  11291 O           2.6847   75.9830   88.5286 O.3   11244  HOH11244    0.0000
  11292 O          79.5377   88.5286   63.9670 O.3   11245  HOH11245    0.0000
  11293 O          35.1033   22.5576    2.6847 O.3   11246  HOH11246    0.0000
  11294 O          75.9830   44.0941   47.1192 O.3   11247  HOH11247    0.0000
  11295 O          31.5485   66.9921   19.5325 O.3   11248  HOH11248    0.0000
  11296 O          51.5431   26.4083   84.6779 O.3   11249  HOH11249    0.0000
  11297 O           7.1086   40.2434   26.4083 O.3   11250  HOH11250    0.0000
  11298 O          59.5431   70.8428   70.8428 O.3   11251  HOH11251    0.0000
  11299 O          40.2434   15.1086   84.6779 O.3   11252  HOH11252    0.0000
  11300 O          84.6779   51.5431   26.4083 O.3   11253  HOH11253    0.0000
  11301 O          26.4083    7.1086   40.2434 O.3   11254  HOH11254    0.0000
  11302 O          70.8428   59.5431   70.8428 O.3   11255  HOH11255    0.0000
  11303 O          84.6779   40.2434   15.1086 O.3   11256  HOH11256    0.0000
  11304 O          26.4083   84.6779   51.5431 O.3   11257  HOH11257    0.0000
  11305 O          40.2434   26.4083    7.1086 O.3   11258  HOH11258    0.0000
  11306 O          70.8428   70.8428   59.5431 O.3   11259  HOH11259    0.0000
  11307 O          62.4607   37.3259    4.1911 O.3   11260  HOH11260    0.0000
  11308 O           4.1911   73.7604   48.6256 O.3   11261  HOH11261    0.0000
  11309 O          18.0262   29.3259   18.0262 O.3   11262  HOH11262    0.0000
  11310 O          48.6256   81.7604   62.4607 O.3   11263  HOH11263    0.0000
  11311 O          81.7604   62.4607   48.6256 O.3   11264  HOH11264    0.0000
  11312 O          29.3259   18.0262   18.0262 O.3   11265  HOH11265    0.0000
  11313 O          73.7604   48.6256    4.1911 O.3   11266  HOH11266    0.0000
  11314 O          37.3259    4.1911   62.4607 O.3   11267  HOH11267    0.0000
  11315 O          18.0262   18.0262   29.3259 O.3   11268  HOH11268    0.0000
  11316 O          62.4607   48.6256   81.7604 O.3   11269  HOH11269    0.0000
  11317 O           4.1911   62.4607   37.3259 O.3   11270  HOH11270    0.0000
  11318 O          48.6256    4.1911   73.7604 O.3   11271  HOH11271    0.0000
  11319 O          73.7604    4.1911   48.6256 O.3   11272  HOH11272    0.0000
  11320 O          37.3259   62.4607    4.1911 O.3   11273  HOH11273    0.0000
  11321 O          81.7604   48.6256   62.4607 O.3   11274  HOH11274    0.0000
  11322 O          48.6256   73.7604    4.1911 O.3   11275  HOH11275    0.0000
  11323 O           4.1911   37.3259   62.4607 O.3   11276  HOH11276    0.0000
  11324 O          62.4607   81.7604   48.6256 O.3   11277  HOH11277    0.0000
  11325 O           4.1911   48.6256   73.7604 O.3   11278  HOH11278    0.0000
  11326 O          62.4607    4.1911   37.3259 O.3   11279  HOH11279    0.0000
  11327 O          48.6256   62.4607   81.7604 O.3   11280  HOH11280    0.0000
  11328 O          26.4083   51.5431   84.6779 O.3   11281  HOH11281    0.0000
  11329 O          84.6779   15.1086   40.2434 O.3   11282  HOH11282    0.0000
  11330 O          40.2434    7.1086   26.4083 O.3   11283  HOH11283    0.0000
  11331 O           7.1086   26.4083   40.2434 O.3   11284  HOH11284    0.0000
  11332 O          15.1086   40.2434   84.6779 O.3   11285  HOH11285    0.0000
  11333 O          51.5431   84.6779   26.4083 O.3   11286  HOH11286    0.0000
  11334 O          26.4083   40.2434    7.1086 O.3   11287  HOH11287    0.0000
  11335 O          84.6779   26.4083   51.5431 O.3   11288  HOH11288    0.0000
  11336 O          40.2434   84.6779   15.1086 O.3   11289  HOH11289    0.0000
  11337 O          51.5431   70.8428   40.2434 O.3   11290  HOH11290    0.0000
  11338 O           7.1086   84.6779   70.8428 O.3   11291  HOH11291    0.0000
  11339 O          59.5431   26.4083   26.4083 O.3   11292  HOH11292    0.0000
  11340 O          40.2434   59.5431   40.2434 O.3   11293  HOH11293    0.0000
  11341 O          84.6779    7.1086   70.8428 O.3   11294  HOH11294    0.0000
  11342 O          70.8428   15.1086   26.4083 O.3   11295  HOH11295    0.0000
  11343 O          84.6779   84.6779   59.5431 O.3   11296  HOH11296    0.0000
  11344 O          40.2434   70.8428   51.5431 O.3   11297  HOH11297    0.0000
  11345 O          70.8428   26.4083   15.1086 O.3   11298  HOH11298    0.0000
  11346 O           4.1911   29.3259    4.1911 O.3   11299  HOH11299    0.0000
  11347 O          18.0262   73.7604   62.4607 O.3   11300  HOH11300    0.0000
  11348 O          48.6256   37.3259   18.0262 O.3   11301  HOH11301    0.0000
  11349 O          81.7604   18.0262    4.1911 O.3   11302  HOH11302    0.0000
  11350 O          29.3259   62.4607   62.4607 O.3   11303  HOH11303    0.0000
  11351 O          37.3259   48.6256   18.0262 O.3   11304  HOH11304    0.0000
  11352 O          18.0262   62.4607   73.7604 O.3   11305  HOH11305    0.0000
  11353 O           4.1911   18.0262   81.7604 O.3   11306  HOH11306    0.0000
  11354 O          48.6256   48.6256   29.3259 O.3   11307  HOH11307    0.0000
  11355 O          37.3259   18.0262   48.6256 O.3   11308  HOH11308    0.0000
  11356 O          81.7604    4.1911   18.0262 O.3   11309  HOH11309    0.0000
  11357 O          48.6256   29.3259   48.6256 O.3   11310  HOH11310    0.0000
  11358 O           4.1911   81.7604   18.0262 O.3   11311  HOH11311    0.0000
  11359 O           4.1911    4.1911   29.3259 O.3   11312  HOH11312    0.0000
  11360 O          48.6256   18.0262   37.3259 O.3   11313  HOH11313    0.0000
  11361 O          84.6779   59.5431   84.6779 O.3   11314  HOH11314    0.0000
  11362 O          40.2434   51.5431   70.8428 O.3   11315  HOH11315    0.0000
  11363 O           7.1086   70.8428   84.6779 O.3   11316  HOH11316    0.0000
  11364 O          51.5431   40.2434   70.8428 O.3   11317  HOH11317    0.0000
  11365 O          84.6779   70.8428    7.1086 O.3   11318  HOH11318    0.0000
  11366 O          40.2434   40.2434   59.5431 O.3   11319  HOH11319    0.0000
  11367 O          59.5431   84.6779   84.6779 O.3   11320  HOH11320    0.0000
  11368 O          15.1086   70.8428   26.4083 O.3   11321  HOH11321    0.0000
  11369 O          70.8428    7.1086   84.6779 O.3   11322  HOH11322    0.0000
  11370 O          26.4083   59.5431   26.4083 O.3   11323  HOH11323    0.0000
  11371 O          70.8428   84.6779    7.1086 O.3   11324  HOH11324    0.0000
  11372 O          26.4083   70.8428   15.1086 O.3   11325  HOH11325    0.0000
  11373 O          18.0262   37.3259   48.6256 O.3   11326  HOH11326    0.0000
  11374 O          62.4607   29.3259   62.4607 O.3   11327  HOH11327    0.0000
  11375 O          73.7604   18.0262   62.4607 O.3   11328  HOH11328    0.0000
  11376 O          29.3259   48.6256   48.6256 O.3   11329  HOH11329    0.0000
  11377 O          62.4607   18.0262   73.7604 O.3   11330  HOH11330    0.0000
  11378 O          18.0262   48.6256   37.3259 O.3   11331  HOH11331    0.0000
  11379 O          29.3259    4.1911    4.1911 O.3   11332  HOH11332    0.0000
  11380 O          18.0262   81.7604    4.1911 O.3   11333  HOH11333    0.0000
  11381 O          18.0262    4.1911   81.7604 O.3   11334  HOH11334    0.0000
  11382 O          70.8428   51.5431   40.2434 O.3   11335  HOH11335    0.0000
  11383 O          59.5431   40.2434   40.2434 O.3   11336  HOH11336    0.0000
  11384 O          70.8428   40.2434   51.5431 O.3   11337  HOH11337    0.0000
  11385 O          15.1086   26.4083   70.8428 O.3   11338  HOH11338    0.0000
  11386 O          26.4083   15.1086   70.8428 O.3   11339  HOH11339    0.0000
  11387 O          26.4083   26.4083   59.5431 O.3   11340  HOH11340    0.0000
  11388 O          62.4607   73.7604   18.0262 O.3   11341  HOH11341    0.0000
  11389 O          73.7604   62.4607   18.0262 O.3   11342  HOH11342    0.0000
  11390 O          62.4607   62.4607   29.3259 O.3   11343  HOH11343    0.0000
  11391 O          55.0721   30.7345   80.3518 O.3   11344  HOH11344    0.0000
  11392 O          10.6376   35.9173   30.7345 O.3   11345  HOH11345    0.0000
  11393 O          56.0141   75.1689   75.1689 O.3   11346  HOH11346    0.0000
  11394 O          35.9173   11.5796   80.3518 O.3   11347  HOH11347    0.0000
  11395 O          80.3518   55.0721   30.7345 O.3   11348  HOH11348    0.0000
  11396 O          30.7345   10.6376   35.9173 O.3   11349  HOH11349    0.0000
  11397 O          75.1689   56.0141   75.1689 O.3   11350  HOH11350    0.0000
  11398 O          80.3518   35.9173   11.5796 O.3   11351  HOH11351    0.0000
  11399 O          30.7345   80.3518   55.0721 O.3   11352  HOH11352    0.0000
  11400 O          35.9173   30.7345   10.6376 O.3   11353  HOH11353    0.0000
  11401 O          75.1689   75.1689   56.0141 O.3   11354  HOH11354    0.0000
  11402 O          58.1345   33.7969    8.5172 O.3   11355  HOH11355    0.0000
  11403 O           8.5172   77.2894   52.9517 O.3   11356  HOH11356    0.0000
  11404 O          13.7000   32.8549   13.7000 O.3   11357  HOH11357    0.0000
  11405 O          52.9517   78.2314   58.1345 O.3   11358  HOH11358    0.0000
  11406 O          78.2314   58.1345   52.9517 O.3   11359  HOH11359    0.0000
  11407 O          32.8549   13.7000   13.7000 O.3   11360  HOH11360    0.0000
  11408 O          77.2894   52.9517    8.5172 O.3   11361  HOH11361    0.0000
  11409 O          33.7969    8.5172   58.1345 O.3   11362  HOH11362    0.0000
  11410 O          13.7000   13.7000   32.8549 O.3   11363  HOH11363    0.0000
  11411 O          58.1345   52.9517   78.2314 O.3   11364  HOH11364    0.0000
  11412 O           8.5172   58.1345   33.7969 O.3   11365  HOH11365    0.0000
  11413 O          52.9517    8.5172   77.2894 O.3   11366  HOH11366    0.0000
  11414 O          77.2894    8.5172   52.9517 O.3   11367  HOH11367    0.0000
  11415 O          33.7969   58.1345    8.5172 O.3   11368  HOH11368    0.0000
  11416 O          78.2314   52.9517   58.1345 O.3   11369  HOH11369    0.0000
  11417 O          52.9517   77.2894    8.5172 O.3   11370  HOH11370    0.0000
  11418 O           8.5172   33.7969   58.1345 O.3   11371  HOH11371    0.0000
  11419 O          58.1345   78.2314   52.9517 O.3   11372  HOH11372    0.0000
  11420 O           8.5172   52.9517   77.2894 O.3   11373  HOH11373    0.0000
  11421 O          58.1345    8.5172   33.7969 O.3   11374  HOH11374    0.0000
  11422 O          52.9517   58.1345   78.2314 O.3   11375  HOH11375    0.0000
  11423 O          30.7345   55.0721   80.3518 O.3   11376  HOH11376    0.0000
  11424 O          80.3518   11.5796   35.9173 O.3   11377  HOH11377    0.0000
  11425 O          35.9173   10.6376   30.7345 O.3   11378  HOH11378    0.0000
  11426 O          10.6376   30.7345   35.9173 O.3   11379  HOH11379    0.0000
  11427 O          11.5796   35.9173   80.3518 O.3   11380  HOH11380    0.0000
  11428 O          55.0721   80.3518   30.7345 O.3   11381  HOH11381    0.0000
  11429 O          30.7345   35.9173   10.6376 O.3   11382  HOH11382    0.0000
  11430 O          80.3518   30.7345   55.0721 O.3   11383  HOH11383    0.0000
  11431 O          35.9173   80.3518   11.5796 O.3   11384  HOH11384    0.0000
  11432 O          55.0721   75.1689   35.9173 O.3   11385  HOH11385    0.0000
  11433 O          10.6376   80.3518   75.1689 O.3   11386  HOH11386    0.0000
  11434 O          56.0141   30.7345   30.7345 O.3   11387  HOH11387    0.0000
  11435 O          35.9173   56.0141   35.9173 O.3   11388  HOH11388    0.0000
  11436 O          80.3518   10.6376   75.1689 O.3   11389  HOH11389    0.0000
  11437 O          75.1689   11.5796   30.7345 O.3   11390  HOH11390    0.0000
  11438 O          80.3518   80.3518   56.0141 O.3   11391  HOH11391    0.0000
  11439 O          35.9173   75.1689   55.0721 O.3   11392  HOH11392    0.0000
  11440 O          75.1689   30.7345   11.5796 O.3   11393  HOH11393    0.0000
  11441 O           8.5172   32.8549    8.5172 O.3   11394  HOH11394    0.0000
  11442 O          13.7000   77.2894   58.1345 O.3   11395  HOH11395    0.0000
  11443 O          52.9517   33.7969   13.7000 O.3   11396  HOH11396    0.0000
  11444 O          78.2314   13.7000    8.5172 O.3   11397  HOH11397    0.0000
  11445 O          32.8549   58.1345   58.1345 O.3   11398  HOH11398    0.0000
  11446 O          33.7969   52.9517   13.7000 O.3   11399  HOH11399    0.0000
  11447 O          13.7000   58.1345   77.2894 O.3   11400  HOH11400    0.0000
  11448 O           8.5172   13.7000   78.2314 O.3   11401  HOH11401    0.0000
  11449 O          52.9517   52.9517   32.8549 O.3   11402  HOH11402    0.0000
  11450 O          33.7969   13.7000   52.9517 O.3   11403  HOH11403    0.0000
  11451 O          78.2314    8.5172   13.7000 O.3   11404  HOH11404    0.0000
  11452 O          52.9517   32.8549   52.9517 O.3   11405  HOH11405    0.0000
  11453 O           8.5172   78.2314   13.7000 O.3   11406  HOH11406    0.0000
  11454 O           8.5172    8.5172   32.8549 O.3   11407  HOH11407    0.0000
  11455 O          52.9517   13.7000   33.7969 O.3   11408  HOH11408    0.0000
  11456 O          80.3518   56.0141   80.3518 O.3   11409  HOH11409    0.0000
  11457 O          35.9173   55.0721   75.1689 O.3   11410  HOH11410    0.0000
  11458 O          10.6376   75.1689   80.3518 O.3   11411  HOH11411    0.0000
  11459 O          55.0721   35.9173   75.1689 O.3   11412  HOH11412    0.0000
  11460 O          80.3518   75.1689   10.6376 O.3   11413  HOH11413    0.0000
  11461 O          35.9173   35.9173   56.0141 O.3   11414  HOH11414    0.0000
  11462 O          56.0141   80.3518   80.3518 O.3   11415  HOH11415    0.0000
  11463 O          11.5796   75.1689   30.7345 O.3   11416  HOH11416    0.0000
  11464 O          75.1689   10.6376   80.3518 O.3   11417  HOH11417    0.0000
  11465 O          30.7345   56.0141   30.7345 O.3   11418  HOH11418    0.0000
  11466 O          75.1689   80.3518   10.6376 O.3   11419  HOH11419    0.0000
  11467 O          30.7345   75.1689   11.5796 O.3   11420  HOH11420    0.0000
  11468 O          13.7000   33.7969   52.9517 O.3   11421  HOH11421    0.0000
  11469 O          58.1345   32.8549   58.1345 O.3   11422  HOH11422    0.0000
  11470 O          77.2894   13.7000   58.1345 O.3   11423  HOH11423    0.0000
  11471 O          32.8549   52.9517   52.9517 O.3   11424  HOH11424    0.0000
  11472 O          58.1345   13.7000   77.2894 O.3   11425  HOH11425    0.0000
  11473 O          13.7000   52.9517   33.7969 O.3   11426  HOH11426    0.0000
  11474 O          32.8549    8.5172    8.5172 O.3   11427  HOH11427    0.0000
  11475 O          13.7000   78.2314    8.5172 O.3   11428  HOH11428    0.0000
  11476 O          13.7000    8.5172   78.2314 O.3   11429  HOH11429    0.0000
  11477 O          75.1689   55.0721   35.9173 O.3   11430  HOH11430    0.0000
  11478 O          56.0141   35.9173   35.9173 O.3   11431  HOH11431    0.0000
  11479 O          75.1689   35.9173   55.0721 O.3   11432  HOH11432    0.0000
  11480 O          11.5796   30.7345   75.1689 O.3   11433  HOH11433    0.0000
  11481 O          30.7345   11.5796   75.1689 O.3   11434  HOH11434    0.0000
  11482 O          30.7345   30.7345   56.0141 O.3   11435  HOH11435    0.0000
  11483 O          58.1345   77.2894   13.7000 O.3   11436  HOH11436    0.0000
  11484 O          77.2894   58.1345   13.7000 O.3   11437  HOH11437    0.0000
  11485 O          58.1345   58.1345   32.8549 O.3   11438  HOH11438    0.0000
  11486 O          64.5909   42.3141   24.3377 O.3   11439  HOH11439    0.0000
  11487 O          20.1564   24.3377   86.7486 O.3   11440  HOH11440    0.0000
  11488 O          46.4954   86.7486   42.3141 O.3   11441  HOH11441    0.0000
  11489 O          68.7722    2.0609   68.7722 O.3   11442  HOH11442    0.0000
  11490 O          24.3377   64.5909   42.3141 O.3   11443  HOH11443    0.0000
  11491 O          86.7486   20.1564   24.3377 O.3   11444  HOH11444    0.0000
  11492 O          42.3141   46.4954   86.7486 O.3   11445  HOH11445    0.0000
  11493 O          68.7722   68.7722    2.0609 O.3   11446  HOH11446    0.0000
  11494 O          42.3141   24.3377   64.5909 O.3   11447  HOH11447    0.0000
  11495 O          24.3377   86.7486   20.1564 O.3   11448  HOH11448    0.0000
  11496 O          86.7486   42.3141   46.4954 O.3   11449  HOH11449    0.0000
  11497 O          46.5549   24.2781   64.5313 O.3   11450  HOH11450    0.0000
  11498 O          20.0968   86.8081   20.0968 O.3   11451  HOH11451    0.0000
  11499 O           2.1204   42.3736   46.5549 O.3   11452  HOH11452    0.0000
  11500 O          64.5313   68.7126    2.1204 O.3   11453  HOH11453    0.0000
  11501 O          68.7126    2.1204   64.5313 O.3   11454  HOH11454    0.0000
  11502 O          42.3736   46.5549    2.1204 O.3   11455  HOH11455    0.0000
  11503 O          86.8081   20.0968   20.0968 O.3   11456  HOH11456    0.0000
  11504 O          24.2781   64.5313   46.5549 O.3   11457  HOH11457    0.0000
  11505 O          46.5549    2.1204   42.3736 O.3   11458  HOH11458    0.0000
  11506 O           2.1204   64.5313   68.7126 O.3   11459  HOH11459    0.0000
  11507 O          64.5313   46.5549   24.2781 O.3   11460  HOH11460    0.0000
  11508 O          20.0968   20.0968   86.8081 O.3   11461  HOH11461    0.0000
  11509 O          24.2781   46.5549   64.5313 O.3   11462  HOH11462    0.0000
  11510 O          68.7126   64.5313    2.1204 O.3   11463  HOH11463    0.0000
  11511 O          42.3736    2.1204   46.5549 O.3   11464  HOH11464    0.0000
  11512 O          64.5313   24.2781   46.5549 O.3   11465  HOH11465    0.0000
  11513 O           2.1204   68.7126   64.5313 O.3   11466  HOH11466    0.0000
  11514 O          46.5549   42.3736    2.1204 O.3   11467  HOH11467    0.0000
  11515 O          46.5549   64.5313   24.2781 O.3   11468  HOH11468    0.0000
  11516 O          64.5313    2.1204   68.7126 O.3   11469  HOH11469    0.0000
  11517 O           2.1204   46.5549   42.3736 O.3   11470  HOH11470    0.0000
  11518 O          42.3141   64.5909   24.3377 O.3   11471  HOH11471    0.0000
  11519 O          86.7486   46.4954   42.3141 O.3   11472  HOH11472    0.0000
  11520 O          24.3377   20.1564   86.7486 O.3   11473  HOH11473    0.0000
  11521 O          20.1564   86.7486   24.3377 O.3   11474  HOH11474    0.0000
  11522 O          46.4954   42.3141   86.7486 O.3   11475  HOH11475    0.0000
  11523 O          64.5909   24.3377   42.3141 O.3   11476  HOH11476    0.0000
  11524 O          42.3141   86.7486   46.4954 O.3   11477  HOH11477    0.0000
  11525 O          86.7486   24.3377   20.1564 O.3   11478  HOH11478    0.0000
  11526 O          24.3377   42.3141   64.5909 O.3   11479  HOH11479    0.0000
  11527 O           2.0609   24.3377   24.3377 O.3   11480  HOH11480    0.0000
  11528 O          64.5909   86.7486   68.7722 O.3   11481  HOH11481    0.0000
  11529 O          20.1564   68.7722   42.3141 O.3   11482  HOH11482    0.0000
  11530 O          68.7722   46.4954   24.3377 O.3   11483  HOH11483    0.0000
  11531 O          86.7486   64.5909   68.7722 O.3   11484  HOH11484    0.0000
  11532 O          42.3141    2.0609   42.3141 O.3   11485  HOH11485    0.0000
  11533 O          68.7722   24.3377   46.4954 O.3   11486  HOH11486    0.0000
  11534 O          42.3141   68.7722   20.1564 O.3   11487  HOH11487    0.0000
  11535 O          86.7486   86.7486    2.0609 O.3   11488  HOH11488    0.0000
  11536 O          46.5549   68.7126   20.0968 O.3   11489  HOH11489    0.0000
  11537 O          20.0968   42.3736   64.5313 O.3   11490  HOH11490    0.0000
  11538 O           2.1204   86.8081    2.1204 O.3   11491  HOH11491    0.0000
  11539 O          68.7126   46.5549   20.0968 O.3   11492  HOH11492    0.0000
  11540 O          86.8081   64.5313   64.5313 O.3   11493  HOH11493    0.0000
  11541 O          24.2781   20.0968    2.1204 O.3   11494  HOH11494    0.0000
  11542 O          46.5549   46.5549   86.8081 O.3   11495  HOH11495    0.0000
  11543 O           2.1204   20.0968   24.2781 O.3   11496  HOH11496    0.0000
  11544 O          20.0968   64.5313   42.3736 O.3   11497  HOH11497    0.0000
  11545 O          24.2781    2.1204   20.0968 O.3   11498  HOH11498    0.0000
  11546 O          68.7126   20.0968   46.5549 O.3   11499  HOH11499    0.0000
  11547 O           2.1204   24.2781   20.0968 O.3   11500  HOH11500    0.0000
  11548 O          46.5549   86.8081   46.5549 O.3   11501  HOH11501    0.0000
  11549 O          46.5549   20.0968   68.7126 O.3   11502  HOH11502    0.0000
  11550 O           2.1204    2.1204   86.8081 O.3   11503  HOH11503    0.0000
  11551 O          42.3141   20.1564   68.7722 O.3   11504  HOH11504    0.0000
  11552 O          86.7486    2.0609   86.7486 O.3   11505  HOH11505    0.0000
  11553 O          20.1564   42.3141   68.7722 O.3   11506  HOH11506    0.0000
  11554 O          64.5909   68.7722   86.7486 O.3   11507  HOH11507    0.0000
  11555 O          42.3141   42.3141    2.0609 O.3   11508  HOH11508    0.0000
  11556 O          86.7486   68.7722   64.5909 O.3   11509  HOH11509    0.0000
  11557 O          46.4954   68.7722   24.3377 O.3   11510  HOH11510    0.0000
  11558 O           2.0609   86.7486   86.7486 O.3   11511  HOH11511    0.0000
  11559 O          24.3377    2.0609   24.3377 O.3   11512  HOH11512    0.0000
  11560 O          68.7722   64.5909   86.7486 O.3   11513  HOH11513    0.0000
  11561 O          24.3377   68.7722   46.4954 O.3   11514  HOH11514    0.0000
  11562 O          68.7722   86.7486   64.5909 O.3   11515  HOH11515    0.0000
  11563 O          64.5313   86.8081   64.5313 O.3   11516  HOH11516    0.0000
  11564 O          20.0968   68.7126   46.5549 O.3   11517  HOH11517    0.0000
  11565 O          86.8081   46.5549   46.5549 O.3   11518  HOH11518    0.0000
  11566 O          42.3736   20.0968   64.5313 O.3   11519  HOH11519    0.0000
  11567 O          20.0968   46.5549   68.7126 O.3   11520  HOH11520    0.0000
  11568 O          64.5313   20.0968   42.3736 O.3   11521  HOH11521    0.0000
  11569 O          86.8081    2.1204    2.1204 O.3   11522  HOH11522    0.0000
  11570 O          20.0968   24.2781    2.1204 O.3   11523  HOH11523    0.0000
  11571 O          20.0968    2.1204   24.2781 O.3   11524  HOH11524    0.0000
  11572 O          68.7722   20.1564   42.3141 O.3   11525  HOH11525    0.0000
  11573 O           2.0609   42.3141   42.3141 O.3   11526  HOH11526    0.0000
  11574 O          68.7722   42.3141   20.1564 O.3   11527  HOH11527    0.0000
  11575 O          46.4954   24.3377   68.7722 O.3   11528  HOH11528    0.0000
  11576 O          24.3377   46.4954   68.7722 O.3   11529  HOH11529    0.0000
  11577 O          24.3377   24.3377    2.0609 O.3   11530  HOH11530    0.0000
  11578 O          64.5313   42.3736   20.0968 O.3   11531  HOH11531    0.0000
  11579 O          42.3736   64.5313   20.0968 O.3   11532  HOH11532    0.0000
  11580 O          64.5313   64.5313   86.8081 O.3   11533  HOH11533    0.0000
  11581 O          49.9666   80.0487   35.6142 O.3   11534  HOH11534    0.0000
  11582 O           5.5321   75.4720   75.4720 O.3   11535  HOH11535    0.0000
  11583 O          61.1196   35.6142   31.0375 O.3   11536  HOH11536    0.0000
  11584 O          80.0487   16.6852   31.0375 O.3   11537  HOH11537    0.0000
  11585 O          35.6142   49.9666   80.0487 O.3   11538  HOH11538    0.0000
  11586 O          75.4720    5.5321   75.4720 O.3   11539  HOH11539    0.0000
  11587 O          31.0375   61.1196   35.6142 O.3   11540  HOH11540    0.0000
  11588 O          31.0375   80.0487   16.6852 O.3   11541  HOH11541    0.0000
  11589 O          80.0487   35.6142   49.9666 O.3   11542  HOH11542    0.0000
  11590 O          75.4720   75.4720    5.5321 O.3   11543  HOH11543    0.0000
  11591 O          35.6142   31.0375   61.1196 O.3   11544  HOH11544    0.0000
  11592 O           8.8202   38.9024   53.2547 O.3   11545  HOH11545    0.0000
  11593 O          57.8315   72.1838    8.8202 O.3   11546  HOH11546    0.0000
  11594 O          53.2547   27.7493   57.8315 O.3   11547  HOH11547    0.0000
  11595 O          13.3970   83.3369   13.3970 O.3   11548  HOH11548    0.0000
  11596 O          83.3369   13.3970   13.3970 O.3   11549  HOH11549    0.0000
  11597 O          27.7493   57.8315   53.2547 O.3   11550  HOH11550    0.0000
  11598 O          72.1838    8.8202   57.8315 O.3   11551  HOH11551    0.0000
  11599 O          38.9024   53.2547    8.8202 O.3   11552  HOH11552    0.0000
  11600 O          57.8315   53.2547   27.7493 O.3   11553  HOH11553    0.0000
  11601 O          13.3970   13.3970   83.3369 O.3   11554  HOH11554    0.0000
  11602 O          53.2547    8.8202   38.9024 O.3   11555  HOH11555    0.0000
  11603 O           8.8202   57.8315   72.1838 O.3   11556  HOH11556    0.0000
  11604 O          72.1838   57.8315    8.8202 O.3   11557  HOH11557    0.0000
  11605 O          38.9024    8.8202   53.2547 O.3   11558  HOH11558    0.0000
  11606 O          27.7493   53.2547   57.8315 O.3   11559  HOH11559    0.0000
  11607 O           8.8202   72.1838   57.8315 O.3   11560  HOH11560    0.0000
  11608 O          53.2547   38.9024    8.8202 O.3   11561  HOH11561    0.0000
  11609 O          57.8315   27.7493   53.2547 O.3   11562  HOH11562    0.0000
  11610 O          57.8315    8.8202   72.1838 O.3   11563  HOH11563    0.0000
  11611 O           8.8202   53.2547   38.9024 O.3   11564  HOH11564    0.0000
  11612 O          53.2547   57.8315   27.7493 O.3   11565  HOH11565    0.0000
  11613 O          80.0487   49.9666   35.6142 O.3   11566  HOH11566    0.0000
  11614 O          31.0375   16.6852   80.0487 O.3   11567  HOH11567    0.0000
  11615 O          35.6142   61.1196   31.0375 O.3   11568  HOH11568    0.0000
  11616 O          61.1196   31.0375   35.6142 O.3   11569  HOH11569    0.0000
  11617 O          16.6852   80.0487   31.0375 O.3   11570  HOH11570    0.0000
  11618 O          49.9666   35.6142   80.0487 O.3   11571  HOH11571    0.0000
  11619 O          31.0375   35.6142   61.1196 O.3   11572  HOH11572    0.0000
  11620 O          35.6142   80.0487   49.9666 O.3   11573  HOH11573    0.0000
  11621 O          80.0487   31.0375   16.6852 O.3   11574  HOH11574    0.0000
  11622 O          16.6852   75.4720   35.6142 O.3   11575  HOH11575    0.0000
  11623 O           5.5321   31.0375   31.0375 O.3   11576  HOH11576    0.0000
  11624 O          61.1196   80.0487   75.4720 O.3   11577  HOH11577    0.0000
  11625 O          80.0487   61.1196   75.4720 O.3   11578  HOH11578    0.0000
  11626 O          35.6142    5.5321   35.6142 O.3   11579  HOH11579    0.0000
  11627 O          75.4720   49.9666   31.0375 O.3   11580  HOH11580    0.0000
  11628 O          80.0487   80.0487    5.5321 O.3   11581  HOH11581    0.0000
  11629 O          75.4720   31.0375   49.9666 O.3   11582  HOH11582    0.0000
  11630 O          35.6142   75.4720   16.6852 O.3   11583  HOH11583    0.0000
  11631 O           8.8202   83.3369    8.8202 O.3   11584  HOH11584    0.0000
  11632 O          53.2547   72.1838   13.3970 O.3   11585  HOH11585    0.0000
  11633 O          13.3970   38.9024   57.8315 O.3   11586  HOH11586    0.0000
  11634 O          83.3369   57.8315   57.8315 O.3   11587  HOH11587    0.0000
  11635 O          27.7493   13.3970    8.8202 O.3   11588  HOH11588    0.0000
  11636 O          72.1838   53.2547   13.3970 O.3   11589  HOH11589    0.0000
  11637 O          13.3970   57.8315   38.9024 O.3   11590  HOH11590    0.0000
  11638 O          53.2547   53.2547   83.3369 O.3   11591  HOH11591    0.0000
  11639 O           8.8202   13.3970   27.7493 O.3   11592  HOH11592    0.0000
  11640 O          72.1838   13.3970   53.2547 O.3   11593  HOH11593    0.0000
  11641 O          27.7493    8.8202   13.3970 O.3   11594  HOH11594    0.0000
  11642 O           8.8202   27.7493   13.3970 O.3   11595  HOH11595    0.0000
  11643 O          53.2547   83.3369   53.2547 O.3   11596  HOH11596    0.0000
  11644 O           8.8202    8.8202   83.3369 O.3   11597  HOH11597    0.0000
  11645 O          53.2547   13.3970   72.1838 O.3   11598  HOH11598    0.0000
  11646 O          80.0487    5.5321   80.0487 O.3   11599  HOH11599    0.0000
  11647 O          35.6142   16.6852   75.4720 O.3   11600  HOH11600    0.0000
  11648 O          61.1196   75.4720   80.0487 O.3   11601  HOH11601    0.0000
  11649 O          16.6852   35.6142   75.4720 O.3   11602  HOH11602    0.0000
  11650 O          35.6142   35.6142    5.5321 O.3   11603  HOH11603    0.0000
  11651 O          80.0487   75.4720   61.1196 O.3   11604  HOH11604    0.0000
  11652 O           5.5321   80.0487   80.0487 O.3   11605  HOH11605    0.0000
  11653 O          49.9666   75.4720   31.0375 O.3   11606  HOH11606    0.0000
  11654 O          31.0375    5.5321   31.0375 O.3   11607  HOH11607    0.0000
  11655 O          75.4720   61.1196   80.0487 O.3   11608  HOH11608    0.0000
  11656 O          75.4720   80.0487   61.1196 O.3   11609  HOH11609    0.0000
  11657 O          31.0375   75.4720   49.9666 O.3   11610  HOH11610    0.0000
  11658 O          13.3970   72.1838   53.2547 O.3   11611  HOH11611    0.0000
  11659 O          57.8315   83.3369   57.8315 O.3   11612  HOH11612    0.0000
  11660 O          38.9024   13.3970   57.8315 O.3   11613  HOH11613    0.0000
  11661 O          83.3369   53.2547   53.2547 O.3   11614  HOH11614    0.0000
  11662 O          13.3970   53.2547   72.1838 O.3   11615  HOH11615    0.0000
  11663 O          57.8315   13.3970   38.9024 O.3   11616  HOH11616    0.0000
  11664 O          83.3369    8.8202    8.8202 O.3   11617  HOH11617    0.0000
  11665 O          13.3970   27.7493    8.8202 O.3   11618  HOH11618    0.0000
  11666 O          13.3970    8.8202   27.7493 O.3   11619  HOH11619    0.0000
  11667 O          75.4720   16.6852   35.6142 O.3   11620  HOH11620    0.0000
  11668 O           5.5321   35.6142   35.6142 O.3   11621  HOH11621    0.0000
  11669 O          75.4720   35.6142   16.6852 O.3   11622  HOH11622    0.0000
  11670 O          49.9666   31.0375   75.4720 O.3   11623  HOH11623    0.0000
  11671 O          31.0375   49.9666   75.4720 O.3   11624  HOH11624    0.0000
  11672 O          31.0375   31.0375    5.5321 O.3   11625  HOH11625    0.0000
  11673 O          57.8315   38.9024   13.3970 O.3   11626  HOH11626    0.0000
  11674 O          38.9024   57.8315   13.3970 O.3   11627  HOH11627    0.0000
  11675 O          57.8315   57.8315   83.3369 O.3   11628  HOH11628    0.0000
  11676 O          76.8184   32.3839   34.2679 O.3   11629  HOH11629    0.0000
  11677 O          32.3839   34.2679   76.8184 O.3   11630  HOH11630    0.0000
  11678 O          34.2679   76.8184   32.3839 O.3   11631  HOH11631    0.0000
  11679 O          56.4851   12.0506   54.6011 O.3   11632  HOH11632    0.0000
  11680 O          10.1666   10.1666   10.1666 O.3   11633  HOH11633    0.0000
  11681 O          12.0506   54.6011   56.4851 O.3   11634  HOH11634    0.0000
  11682 O          54.6011   56.4851   12.0506 O.3   11635  HOH11635    0.0000
  11683 O          12.0506   56.4851   54.6011 O.3   11636  HOH11636    0.0000
  11684 O          56.4851   54.6011   12.0506 O.3   11637  HOH11637    0.0000
  11685 O          54.6011   12.0506   56.4851 O.3   11638  HOH11638    0.0000
  11686 O          32.3839   76.8184   34.2679 O.3   11639  HOH11639    0.0000
  11687 O          76.8184   34.2679   32.3839 O.3   11640  HOH11640    0.0000
  11688 O          34.2679   32.3839   76.8184 O.3   11641  HOH11641    0.0000
  11689 O          78.7024   34.2679   34.2679 O.3   11642  HOH11642    0.0000
  11690 O          76.8184   76.8184   78.7024 O.3   11643  HOH11643    0.0000
  11691 O          32.3839   78.7024   32.3839 O.3   11644  HOH11644    0.0000
  11692 O          56.4851   56.4851   10.1666 O.3   11645  HOH11645    0.0000
  11693 O          10.1666   54.6011   54.6011 O.3   11646  HOH11646    0.0000
  11694 O          12.0506   10.1666   12.0506 O.3   11647  HOH11647    0.0000
  11695 O          12.0506   12.0506   10.1666 O.3   11648  HOH11648    0.0000
  11696 O          56.4851   10.1666   56.4851 O.3   11649  HOH11649    0.0000
  11697 O          32.3839   32.3839   78.7024 O.3   11650  HOH11650    0.0000
  11698 O          76.8184   78.7024   76.8184 O.3   11651  HOH11651    0.0000
  11699 O          34.2679   78.7024   34.2679 O.3   11652  HOH11652    0.0000
  11700 O          78.7024   76.8184   76.8184 O.3   11653  HOH11653    0.0000
  11701 O          54.6011   10.1666   54.6011 O.3   11654  HOH11654    0.0000
  11702 O          10.1666   56.4851   56.4851 O.3   11655  HOH11655    0.0000
  11703 O          10.1666   12.0506   12.0506 O.3   11656  HOH11656    0.0000
  11704 O          78.7024   32.3839   32.3839 O.3   11657  HOH11657    0.0000
  11705 O          34.2679   34.2679   78.7024 O.3   11658  HOH11658    0.0000
  11706 O          54.6011   54.6011   10.1666 O.3   11659  HOH11659    0.0000
  11707 O          52.6007   82.2891    8.1662 O.3   11660  HOH11660    0.0000
  11708 O           8.1662   73.2316   14.0511 O.3   11661  HOH11661    0.0000
  11709 O          58.4856   37.8546   58.4856 O.3   11662  HOH11662    0.0000
  11710 O          52.6007   14.0511   28.7971 O.3   11663  HOH11663    0.0000
  11711 O           8.1662   52.6007   82.2891 O.3   11664  HOH11664    0.0000
  11712 O          14.0511    8.1662   73.2316 O.3   11665  HOH11665    0.0000
  11713 O          58.4856   58.4856   37.8546 O.3   11666  HOH11666    0.0000
  11714 O          28.7971   52.6007   14.0511 O.3   11667  HOH11667    0.0000
  11715 O          82.2891    8.1662   52.6007 O.3   11668  HOH11668    0.0000
  11716 O          73.2316   14.0511    8.1662 O.3   11669  HOH11669    0.0000
  11717 O          37.8546   58.4856   58.4856 O.3   11670  HOH11670    0.0000
  11718 O           6.5799   36.2683   80.7028 O.3   11671  HOH11671    0.0000
  11719 O          60.0719   74.8179   36.2683 O.3   11672  HOH11672    0.0000
  11720 O          51.0144   30.3834   30.3834 O.3   11673  HOH11673    0.0000
  11721 O          15.6374   80.7028   74.8179 O.3   11674  HOH11674    0.0000
  11722 O          80.7028   74.8179   15.6374 O.3   11675  HOH11675    0.0000
  11723 O          30.3834   30.3834   51.0144 O.3   11676  HOH11676    0.0000
  11724 O          74.8179   36.2683   60.0719 O.3   11677  HOH11677    0.0000
  11725 O          36.2683   80.7028    6.5799 O.3   11678  HOH11678    0.0000
  11726 O          30.3834   51.0144   30.3834 O.3   11679  HOH11679    0.0000
  11727 O          74.8179   15.6374   80.7028 O.3   11680  HOH11680    0.0000
  11728 O          80.7028    6.5799   36.2683 O.3   11681  HOH11681    0.0000
  11729 O          36.2683   60.0719   74.8179 O.3   11682  HOH11682    0.0000
  11730 O          74.8179   60.0719   36.2683 O.3   11683  HOH11683    0.0000
  11731 O          36.2683    6.5799   80.7028 O.3   11684  HOH11684    0.0000
  11732 O          80.7028   15.6374   74.8179 O.3   11685  HOH11685    0.0000
  11733 O          36.2683   74.8179   60.0719 O.3   11686  HOH11686    0.0000
  11734 O          80.7028   36.2683    6.5799 O.3   11687  HOH11687    0.0000
  11735 O          74.8179   80.7028   15.6374 O.3   11688  HOH11688    0.0000
  11736 O          60.0719   36.2683   74.8179 O.3   11689  HOH11689    0.0000
  11737 O           6.5799   80.7028   36.2683 O.3   11690  HOH11690    0.0000
  11738 O          15.6374   74.8179   80.7028 O.3   11691  HOH11691    0.0000
  11739 O          82.2891   52.6007    8.1662 O.3   11692  HOH11692    0.0000
  11740 O          28.7971   14.0511   52.6007 O.3   11693  HOH11693    0.0000
  11741 O          73.2316    8.1662   14.0511 O.3   11694  HOH11694    0.0000
  11742 O           8.1662   14.0511   73.2316 O.3   11695  HOH11695    0.0000
  11743 O          14.0511   52.6007   28.7971 O.3   11696  HOH11696    0.0000
  11744 O          52.6007    8.1662   82.2891 O.3   11697  HOH11697    0.0000
  11745 O          14.0511   73.2316    8.1662 O.3   11698  HOH11698    0.0000
  11746 O           8.1662   82.2891   52.6007 O.3   11699  HOH11699    0.0000
  11747 O          52.6007   28.7971   14.0511 O.3   11700  HOH11700    0.0000
  11748 O          52.6007   37.8546   52.6007 O.3   11701  HOH11701    0.0000
  11749 O           8.1662   28.7971   58.4856 O.3   11702  HOH11702    0.0000
  11750 O          58.4856   82.2891   14.0511 O.3   11703  HOH11703    0.0000
  11751 O          52.6007   58.4856   73.2316 O.3   11704  HOH11704    0.0000
  11752 O           8.1662    8.1662   37.8546 O.3   11705  HOH11705    0.0000
  11753 O          58.4856   14.0511   82.2891 O.3   11706  HOH11706    0.0000
  11754 O          28.7971    8.1662   58.4856 O.3   11707  HOH11707    0.0000
  11755 O          73.2316   58.4856   52.6007 O.3   11708  HOH11708    0.0000
  11756 O          37.8546   14.0511   14.0511 O.3   11709  HOH11709    0.0000
  11757 O          60.0719   30.3834   80.7028 O.3   11710  HOH11710    0.0000
  11758 O          51.0144   74.8179   74.8179 O.3   11711  HOH11711    0.0000
  11759 O          15.6374   36.2683   30.3834 O.3   11712  HOH11712    0.0000
  11760 O          80.7028   30.3834   60.0719 O.3   11713  HOH11713    0.0000
  11761 O          30.3834   74.8179    6.5799 O.3   11714  HOH11714    0.0000
  11762 O          36.2683   36.2683   51.0144 O.3   11715  HOH11715    0.0000
  11763 O          30.3834    6.5799   74.8179 O.3   11716  HOH11716    0.0000
  11764 O          80.7028   51.0144   80.7028 O.3   11717  HOH11717    0.0000
  11765 O          36.2683   15.6374   30.3834 O.3   11718  HOH11718    0.0000
  11766 O          36.2683   51.0144   36.2683 O.3   11719  HOH11719    0.0000
  11767 O          80.7028   60.0719   30.3834 O.3   11720  HOH11720    0.0000
  11768 O          36.2683   30.3834   15.6374 O.3   11721  HOH11721    0.0000
  11769 O          80.7028   80.7028   51.0144 O.3   11722  HOH11722    0.0000
  11770 O          60.0719   80.7028   30.3834 O.3   11723  HOH11723    0.0000
  11771 O          15.6374   30.3834   36.2683 O.3   11724  HOH11724    0.0000
  11772 O          28.7971   58.4856    8.1662 O.3   11725  HOH11725    0.0000
  11773 O          73.2316   52.6007   58.4856 O.3   11726  HOH11726    0.0000
  11774 O           8.1662   58.4856   28.7971 O.3   11727  HOH11727    0.0000
  11775 O          52.6007   52.6007   37.8546 O.3   11728  HOH11728    0.0000
  11776 O           8.1662   37.8546    8.1662 O.3   11729  HOH11729    0.0000
  11777 O          52.6007   73.2316   58.4856 O.3   11730  HOH11730    0.0000
  11778 O          58.4856   28.7971    8.1662 O.3   11731  HOH11731    0.0000
  11779 O          14.0511   37.8546   14.0511 O.3   11732  HOH11732    0.0000
  11780 O          58.4856    8.1662   28.7971 O.3   11733  HOH11733    0.0000
  11781 O          14.0511   58.4856   82.2891 O.3   11734  HOH11734    0.0000
  11782 O          37.8546    8.1662    8.1662 O.3   11735  HOH11735    0.0000
  11783 O          82.2891   58.4856   14.0511 O.3   11736  HOH11736    0.0000
  11784 O          51.0144   36.2683   36.2683 O.3   11737  HOH11737    0.0000
  11785 O           6.5799   30.3834   74.8179 O.3   11738  HOH11738    0.0000
  11786 O          74.8179   30.3834    6.5799 O.3   11739  HOH11739    0.0000
  11787 O          30.3834   36.2683   15.6374 O.3   11740  HOH11740    0.0000
  11788 O          74.8179   51.0144   74.8179 O.3   11741  HOH11741    0.0000
  11789 O          30.3834   15.6374   36.2683 O.3   11742  HOH11742    0.0000
  11790 O          30.3834   60.0719   80.7028 O.3   11743  HOH11743    0.0000
  11791 O          30.3834   80.7028   60.0719 O.3   11744  HOH11744    0.0000
  11792 O          51.0144   80.7028   80.7028 O.3   11745  HOH11745    0.0000
  11793 O          37.8546   52.6007   52.6007 O.3   11746  HOH11746    0.0000
  11794 O          58.4856   52.6007   73.2316 O.3   11747  HOH11747    0.0000
  11795 O          58.4856   73.2316   52.6007 O.3   11748  HOH11748    0.0000
  11796 O          14.0511   82.2891   58.4856 O.3   11749  HOH11749    0.0000
  11797 O          14.0511   14.0511   37.8546 O.3   11750  HOH11750    0.0000
  11798 O          82.2891   14.0511   58.4856 O.3   11751  HOH11751    0.0000
  11799 O           6.5799   74.8179   30.3834 O.3   11752  HOH11752    0.0000
  11800 O          74.8179   74.8179   51.0144 O.3   11753  HOH11753    0.0000
  11801 O          74.8179    6.5799   30.3834 O.3   11754  HOH11754    0.0000
  11802 O          73.4244   28.9900   35.4392 O.3   11755  HOH11755    0.0000
  11803 O          28.9900   37.6618   75.6471 O.3   11756  HOH11756    0.0000
  11804 O          37.6618   73.4244   31.2126 O.3   11757  HOH11757    0.0000
  11805 O          79.8737   82.0963   82.0963 O.3   11758  HOH11758    0.0000
  11806 O          35.4392   73.4244   28.9900 O.3   11759  HOH11759    0.0000
  11807 O          75.6471   28.9900   37.6618 O.3   11760  HOH11760    0.0000
  11808 O          31.2126   37.6618   73.4244 O.3   11761  HOH11761    0.0000
  11809 O          82.0963   79.8737   82.0963 O.3   11762  HOH11762    0.0000
  11810 O          28.9900   35.4392   73.4244 O.3   11763  HOH11763    0.0000
  11811 O          37.6618   75.6471   28.9900 O.3   11764  HOH11764    0.0000
  11812 O          73.4244   31.2126   37.6618 O.3   11765  HOH11765    0.0000
  11813 O          59.8790   15.4445   53.4298 O.3   11766  HOH11766    0.0000
  11814 O           6.7727    6.7727    8.9953 O.3   11767  HOH11767    0.0000
  11815 O          15.4445   51.2072   57.6564 O.3   11768  HOH11768    0.0000
  11816 O          51.2072   59.8790   13.2219 O.3   11769  HOH11769    0.0000
  11817 O          59.8790   13.2219   51.2072 O.3   11770  HOH11770    0.0000
  11818 O          51.2072   57.6564   15.4445 O.3   11771  HOH11771    0.0000
  11819 O           6.7727    8.9953    6.7727 O.3   11772  HOH11772    0.0000
  11820 O          15.4445   53.4298   59.8790 O.3   11773  HOH11773    0.0000
  11821 O          57.6564   15.4445   51.2072 O.3   11774  HOH11774    0.0000
  11822 O          13.2219   51.2072   59.8790 O.3   11775  HOH11775    0.0000
  11823 O          53.4298   59.8790   15.4445 O.3   11776  HOH11776    0.0000
  11824 O           8.9953    6.7727    6.7727 O.3   11777  HOH11777    0.0000
  11825 O          15.4445   59.8790   53.4298 O.3   11778  HOH11778    0.0000
  11826 O          59.8790   51.2072   13.2219 O.3   11779  HOH11779    0.0000
  11827 O          51.2072   15.4445   57.6564 O.3   11780  HOH11780    0.0000
  11828 O          53.4298   15.4445   59.8790 O.3   11781  HOH11781    0.0000
  11829 O          13.2219   59.8790   51.2072 O.3   11782  HOH11782    0.0000
  11830 O          57.6564   51.2072   15.4445 O.3   11783  HOH11783    0.0000
  11831 O          59.8790   53.4298   15.4445 O.3   11784  HOH11784    0.0000
  11832 O          51.2072   13.2219   59.8790 O.3   11785  HOH11785    0.0000
  11833 O          15.4445   57.6564   51.2072 O.3   11786  HOH11786    0.0000
  11834 O          28.9900   73.4244   35.4392 O.3   11787  HOH11787    0.0000
  11835 O          73.4244   37.6618   31.2126 O.3   11788  HOH11788    0.0000
  11836 O          37.6618   28.9900   75.6471 O.3   11789  HOH11789    0.0000
  11837 O          28.9900   75.6471   37.6618 O.3   11790  HOH11790    0.0000
  11838 O          37.6618   31.2126   73.4244 O.3   11791  HOH11791    0.0000
  11839 O          73.4244   35.4392   28.9900 O.3   11792  HOH11792    0.0000
  11840 O          31.2126   73.4244   37.6618 O.3   11793  HOH11793    0.0000
  11841 O          75.6471   37.6618   28.9900 O.3   11794  HOH11794    0.0000
  11842 O          35.4392   28.9900   73.4244 O.3   11795  HOH11795    0.0000
  11843 O          82.0963   37.6618   35.4392 O.3   11796  HOH11796    0.0000
  11844 O          73.4244   73.4244   79.8737 O.3   11797  HOH11797    0.0000
  11845 O          28.9900   82.0963   31.2126 O.3   11798  HOH11798    0.0000
  11846 O          79.8737   37.6618   37.6618 O.3   11799  HOH11799    0.0000
  11847 O          75.6471   73.4244   82.0963 O.3   11800  HOH11800    0.0000
  11848 O          31.2126   82.0963   28.9900 O.3   11801  HOH11801    0.0000
  11849 O          82.0963   35.4392   37.6618 O.3   11802  HOH11802    0.0000
  11850 O          28.9900   79.8737   28.9900 O.3   11803  HOH11803    0.0000
  11851 O          73.4244   75.6471   82.0963 O.3   11804  HOH11804    0.0000
  11852 O          59.8790   59.8790    8.9953 O.3   11805  HOH11805    0.0000
  11853 O           6.7727   51.2072   53.4298 O.3   11806  HOH11806    0.0000
  11854 O          15.4445    6.7727   13.2219 O.3   11807  HOH11807    0.0000
  11855 O          59.8790   57.6564    6.7727 O.3   11808  HOH11808    0.0000
  11856 O           6.7727   53.4298   51.2072 O.3   11809  HOH11809    0.0000
  11857 O          15.4445    8.9953   15.4445 O.3   11810  HOH11810    0.0000
  11858 O          57.6564   59.8790    6.7727 O.3   11811  HOH11811    0.0000
  11859 O          13.2219    6.7727   15.4445 O.3   11812  HOH11812    0.0000
  11860 O           8.9953   51.2072   51.2072 O.3   11813  HOH11813    0.0000
  11861 O          15.4445   15.4445    8.9953 O.3   11814  HOH11814    0.0000
  11862 O          59.8790    6.7727   57.6564 O.3   11815  HOH11815    0.0000
  11863 O          13.2219   15.4445    6.7727 O.3   11816  HOH11816    0.0000
  11864 O          57.6564    6.7727   59.8790 O.3   11817  HOH11817    0.0000
  11865 O          59.8790    8.9953   59.8790 O.3   11818  HOH11818    0.0000
  11866 O          15.4445   13.2219    6.7727 O.3   11819  HOH11819    0.0000
  11867 O          28.9900   28.9900   79.8737 O.3   11820  HOH11820    0.0000
  11868 O          73.4244   82.0963   75.6471 O.3   11821  HOH11821    0.0000
  11869 O          28.9900   31.2126   82.0963 O.3   11822  HOH11822    0.0000
  11870 O          73.4244   79.8737   73.4244 O.3   11823  HOH11823    0.0000
  11871 O          31.2126   28.9900   82.0963 O.3   11824  HOH11824    0.0000
  11872 O          75.6471   82.0963   73.4244 O.3   11825  HOH11825    0.0000
  11873 O          37.6618   82.0963   35.4392 O.3   11826  HOH11826    0.0000
  11874 O          82.0963   73.4244   75.6471 O.3   11827  HOH11827    0.0000
  11875 O          35.4392   82.0963   37.6618 O.3   11828  HOH11828    0.0000
  11876 O          79.8737   73.4244   73.4244 O.3   11829  HOH11829    0.0000
  11877 O          37.6618   79.8737   37.6618 O.3   11830  HOH11830    0.0000
  11878 O          82.0963   75.6471   73.4244 O.3   11831  HOH11831    0.0000
  11879 O          51.2072    6.7727   53.4298 O.3   11832  HOH11832    0.0000
  11880 O           6.7727   59.8790   57.6564 O.3   11833  HOH11833    0.0000
  11881 O           6.7727   57.6564   59.8790 O.3   11834  HOH11834    0.0000
  11882 O          51.2072    8.9953   51.2072 O.3   11835  HOH11835    0.0000
  11883 O           8.9953   59.8790   59.8790 O.3   11836  HOH11836    0.0000
  11884 O          53.4298    6.7727   51.2072 O.3   11837  HOH11837    0.0000
  11885 O           6.7727   15.4445   13.2219 O.3   11838  HOH11838    0.0000
  11886 O           8.9953   15.4445   15.4445 O.3   11839  HOH11839    0.0000
  11887 O           6.7727   13.2219   15.4445 O.3   11840  HOH11840    0.0000
  11888 O          82.0963   28.9900   31.2126 O.3   11841  HOH11841    0.0000
  11889 O          82.0963   31.2126   28.9900 O.3   11842  HOH11842    0.0000
  11890 O          79.8737   28.9900   28.9900 O.3   11843  HOH11843    0.0000
  11891 O          37.6618   37.6618   79.8737 O.3   11844  HOH11844    0.0000
  11892 O          35.4392   37.6618   82.0963 O.3   11845  HOH11845    0.0000
  11893 O          37.6618   35.4392   82.0963 O.3   11846  HOH11846    0.0000
  11894 O          51.2072   51.2072    8.9953 O.3   11847  HOH11847    0.0000
  11895 O          51.2072   53.4298    6.7727 O.3   11848  HOH11848    0.0000
  11896 O          53.4298   51.2072    6.7727 O.3   11849  HOH11849    0.0000
  11897 O          48.0941   77.7604   33.3259 O.3   11850  HOH11850    0.0000
  11898 O           3.6596   77.7604   77.7604 O.3   11851  HOH11851    0.0000
  11899 O          62.9921   33.3259   33.3259 O.3   11852  HOH11852    0.0000
  11900 O          77.7604   18.5576   33.3259 O.3   11853  HOH11853    0.0000
  11901 O          33.3259   48.0941   77.7604 O.3   11854  HOH11854    0.0000
  11902 O          77.7604    3.6596   77.7604 O.3   11855  HOH11855    0.0000
  11903 O          33.3259   62.9921   33.3259 O.3   11856  HOH11856    0.0000
  11904 O          33.3259   77.7604   18.5576 O.3   11857  HOH11857    0.0000
  11905 O          77.7604   33.3259   48.0941 O.3   11858  HOH11858    0.0000
  11906 O          77.7604   77.7604    3.6596 O.3   11859  HOH11859    0.0000
  11907 O          33.3259   33.3259   62.9921 O.3   11860  HOH11860    0.0000
  11908 O          11.1086   40.7749   55.5431 O.3   11861  HOH11861    0.0000
  11909 O          55.5431   70.3114   11.1086 O.3   11862  HOH11862    0.0000
  11910 O          55.5431   25.8769   55.5431 O.3   11863  HOH11863    0.0000
  11911 O          11.1086   85.2094   11.1086 O.3   11864  HOH11864    0.0000
  11912 O          85.2094   11.1086   11.1086 O.3   11865  HOH11865    0.0000
  11913 O          25.8769   55.5431   55.5431 O.3   11866  HOH11866    0.0000
  11914 O          70.3114   11.1086   55.5431 O.3   11867  HOH11867    0.0000
  11915 O          40.7749   55.5431   11.1086 O.3   11868  HOH11868    0.0000
  11916 O          55.5431   55.5431   25.8769 O.3   11869  HOH11869    0.0000
  11917 O          11.1086   11.1086   85.2094 O.3   11870  HOH11870    0.0000
  11918 O          55.5431   11.1086   40.7749 O.3   11871  HOH11871    0.0000
  11919 O          11.1086   55.5431   70.3114 O.3   11872  HOH11872    0.0000
  11920 O          70.3114   55.5431   11.1086 O.3   11873  HOH11873    0.0000
  11921 O          40.7749   11.1086   55.5431 O.3   11874  HOH11874    0.0000
  11922 O          11.1086   70.3114   55.5431 O.3   11875  HOH11875    0.0000
  11923 O          55.5431   40.7749   11.1086 O.3   11876  HOH11876    0.0000
  11924 O          55.5431   11.1086   70.3114 O.3   11877  HOH11877    0.0000
  11925 O          11.1086   55.5431   40.7749 O.3   11878  HOH11878    0.0000
  11926 O          77.7604   48.0941   33.3259 O.3   11879  HOH11879    0.0000
  11927 O          33.3259   18.5576   77.7604 O.3   11880  HOH11880    0.0000
  11928 O          18.5576   77.7604   33.3259 O.3   11881  HOH11881    0.0000
  11929 O          48.0941   33.3259   77.7604 O.3   11882  HOH11882    0.0000
  11930 O          33.3259   77.7604   48.0941 O.3   11883  HOH11883    0.0000
  11931 O          77.7604   33.3259   18.5576 O.3   11884  HOH11884    0.0000
  11932 O           3.6596   33.3259   33.3259 O.3   11885  HOH11885    0.0000
  11933 O          62.9921   77.7604   77.7604 O.3   11886  HOH11886    0.0000
  11934 O          77.7604   62.9921   77.7604 O.3   11887  HOH11887    0.0000
  11935 O          33.3259    3.6596   33.3259 O.3   11888  HOH11888    0.0000
  11936 O          85.2094   55.5431   55.5431 O.3   11889  HOH11889    0.0000
  11937 O          25.8769   11.1086   11.1086 O.3   11890  HOH11890    0.0000
  11938 O          55.5431   55.5431   85.2094 O.3   11891  HOH11891    0.0000
  11939 O          11.1086   11.1086   25.8769 O.3   11892  HOH11892    0.0000
  11940 O          11.1086   25.8769   11.1086 O.3   11893  HOH11893    0.0000
  11941 O          55.5431   85.2094   55.5431 O.3   11894  HOH11894    0.0000
  11942 O          33.3259   33.3259    3.6596 O.3   11895  HOH11895    0.0000
  11943 O          77.7604   77.7604   62.9921 O.3   11896  HOH11896    0.0000
  11944 O          56.4638   25.2823    1.3304 O.3   11897  HOH11897    0.0000
  11945 O          12.0293   41.3694   20.8869 O.3   11898  HOH11898    0.0000
  11946 O          54.6224   69.7168   65.3214 O.3   11899  HOH11899    0.0000
  11947 O          45.7649   10.1879   85.8039 O.3   11900  HOH11900    0.0000
  11948 O           1.3304   56.4638   25.2823 O.3   11901  HOH11901    0.0000
  11949 O          20.8869   12.0293   41.3694 O.3   11902  HOH11902    0.0000
  11950 O          65.3214   54.6224   69.7168 O.3   11903  HOH11903    0.0000
  11951 O          85.8039   45.7649   10.1879 O.3   11904  HOH11904    0.0000
  11952 O          25.2823    1.3304   56.4638 O.3   11905  HOH11905    0.0000
  11953 O          41.3694   20.8869   12.0293 O.3   11906  HOH11906    0.0000
  11954 O          69.7168   65.3214   54.6224 O.3   11907  HOH11907    0.0000
  11955 O          63.5867   32.4052   87.5386 O.3   11908  HOH11908    0.0000
  11956 O           3.0651   78.6810   43.1041 O.3   11909  HOH11909    0.0000
  11957 O          19.1522   34.2466   23.5476 O.3   11910  HOH11910    0.0000
  11958 O          47.4996   76.8397   67.9821 O.3   11911  HOH11911    0.0000
  11959 O          76.8397   67.9821   47.4996 O.3   11912  HOH11912    0.0000
  11960 O          34.2466   23.5476   19.1522 O.3   11913  HOH11913    0.0000
  11961 O          78.6810   43.1041    3.0651 O.3   11914  HOH11914    0.0000
  11962 O          32.4052   87.5386   63.5867 O.3   11915  HOH11915    0.0000
  11963 O          23.5476   19.1522   34.2466 O.3   11916  HOH11916    0.0000
  11964 O          67.9821   47.4996   76.8397 O.3   11917  HOH11917    0.0000
  11965 O          87.5386   63.5867   32.4052 O.3   11918  HOH11918    0.0000
  11966 O          43.1041    3.0651   78.6810 O.3   11919  HOH11919    0.0000
  11967 O          78.6810    3.0651   43.1041 O.3   11920  HOH11920    0.0000
  11968 O          32.4052   63.5867   87.5386 O.3   11921  HOH11921    0.0000
  11969 O          76.8397   47.4996   67.9821 O.3   11922  HOH11922    0.0000
  11970 O          34.2466   19.1522   23.5476 O.3   11923  HOH11923    0.0000
  11971 O          43.1041   78.6810    3.0651 O.3   11924  HOH11924    0.0000
  11972 O          87.5386   32.4052   63.5867 O.3   11925  HOH11925    0.0000
  11973 O          67.9821   76.8397   47.4996 O.3   11926  HOH11926    0.0000
  11974 O          23.5476   34.2466   19.1522 O.3   11927  HOH11927    0.0000
  11975 O           3.0651   43.1041   78.6810 O.3   11928  HOH11928    0.0000
  11976 O          63.5867   87.5386   32.4052 O.3   11929  HOH11929    0.0000
  11977 O          47.4996   67.9821   76.8397 O.3   11930  HOH11930    0.0000
  11978 O          19.1522   23.5476   34.2466 O.3   11931  HOH11931    0.0000
  11979 O          25.2823   56.4638    1.3304 O.3   11932  HOH11932    0.0000
  11980 O          85.8039   10.1879   45.7649 O.3   11933  HOH11933    0.0000
  11981 O          69.7168   54.6224   65.3214 O.3   11934  HOH11934    0.0000
  11982 O          41.3694   12.0293   20.8869 O.3   11935  HOH11935    0.0000
  11983 O          12.0293   20.8869   41.3694 O.3   11936  HOH11936    0.0000
  11984 O          54.6224   65.3214   69.7168 O.3   11937  HOH11937    0.0000
  11985 O          10.1879   45.7649   85.8039 O.3   11938  HOH11938    0.0000
  11986 O          56.4638    1.3304   25.2823 O.3   11939  HOH11939    0.0000
  11987 O          65.3214   69.7168   54.6224 O.3   11940  HOH11940    0.0000
  11988 O          20.8869   41.3694   12.0293 O.3   11941  HOH11941    0.0000
  11989 O           1.3304   25.2823   56.4638 O.3   11942  HOH11942    0.0000
  11990 O          45.7649   85.8039   10.1879 O.3   11943  HOH11943    0.0000
  11991 O          10.1879   41.3694    1.3304 O.3   11944  HOH11944    0.0000
  11992 O          56.4638   69.7168   45.7649 O.3   11945  HOH11945    0.0000
  11993 O          12.0293   85.8039   65.3214 O.3   11946  HOH11946    0.0000
  11994 O          54.6224   25.2823   20.8869 O.3   11947  HOH11947    0.0000
  11995 O          45.7649   54.6224   41.3694 O.3   11948  HOH11948    0.0000
  11996 O           1.3304   12.0293   69.7168 O.3   11949  HOH11949    0.0000
  11997 O          20.8869   56.4638   85.8039 O.3   11950  HOH11950    0.0000
  11998 O          65.3214   10.1879   25.2823 O.3   11951  HOH11951    0.0000
  11999 O          85.8039    1.3304   54.6224 O.3   11952  HOH11952    0.0000
  12000 O          25.2823   45.7649   12.0293 O.3   11953  HOH11953    0.0000
  12001 O          41.3694   65.3214   56.4638 O.3   11954  HOH11954    0.0000
  12002 O          69.7168   20.8869   10.1879 O.3   11955  HOH11955    0.0000
  12003 O          63.5867   76.8397   43.1041 O.3   11956  HOH11956    0.0000
  12004 O           3.0651   34.2466   87.5386 O.3   11957  HOH11957    0.0000
  12005 O          19.1522   78.6810   67.9821 O.3   11958  HOH11958    0.0000
  12006 O          47.4996   32.4052   23.5476 O.3   11959  HOH11959    0.0000
  12007 O          76.8397   23.5476    3.0651 O.3   11960  HOH11960    0.0000
  12008 O          34.2466   67.9821   63.5867 O.3   11961  HOH11961    0.0000
  12009 O          78.6810   87.5386   47.4996 O.3   11962  HOH11962    0.0000
  12010 O          32.4052   43.1041   19.1522 O.3   11963  HOH11963    0.0000
  12011 O          23.5476   63.5867   78.6810 O.3   11964  HOH11964    0.0000
  12012 O          67.9821    3.0651   32.4052 O.3   11965  HOH11965    0.0000
  12013 O          87.5386   19.1522   76.8397 O.3   11966  HOH11966    0.0000
  12014 O          43.1041   47.4996   34.2466 O.3   11967  HOH11967    0.0000
  12015 O          78.6810   47.4996   87.5386 O.3   11968  HOH11968    0.0000
  12016 O          32.4052   19.1522   43.1041 O.3   11969  HOH11969    0.0000
  12017 O          76.8397    3.0651   23.5476 O.3   11970  HOH11970    0.0000
  12018 O          34.2466   63.5867   67.9821 O.3   11971  HOH11971    0.0000
  12019 O          43.1041   34.2466   47.4996 O.3   11972  HOH11972    0.0000
  12020 O          87.5386   76.8397   19.1522 O.3   11973  HOH11973    0.0000
  12021 O          67.9821   32.4052    3.0651 O.3   11974  HOH11974    0.0000
  12022 O          23.5476   78.6810   63.5867 O.3   11975  HOH11975    0.0000
  12023 O           3.0651   87.5386   34.2466 O.3   11976  HOH11976    0.0000
  12024 O          63.5867   43.1041   76.8397 O.3   11977  HOH11977    0.0000
  12025 O          47.4996   23.5476   32.4052 O.3   11978  HOH11978    0.0000
  12026 O          19.1522   67.9821   78.6810 O.3   11979  HOH11979    0.0000
  12027 O          25.2823   12.0293   45.7649 O.3   11980  HOH11980    0.0000
  12028 O          85.8039   54.6224    1.3304 O.3   11981  HOH11981    0.0000
  12029 O          69.7168   10.1879   20.8869 O.3   11982  HOH11982    0.0000
  12030 O          41.3694   56.4638   65.3214 O.3   11983  HOH11983    0.0000
  12031 O          12.0293   65.3214   85.8039 O.3   11984  HOH11984    0.0000
  12032 O          54.6224   20.8869   25.2823 O.3   11985  HOH11985    0.0000
  12033 O          10.1879    1.3304   41.3694 O.3   11986  HOH11986    0.0000
  12034 O          56.4638   45.7649   69.7168 O.3   11987  HOH11987    0.0000
  12035 O          65.3214   25.2823   10.1879 O.3   11988  HOH11988    0.0000
  12036 O          20.8869   85.8039   56.4638 O.3   11989  HOH11989    0.0000
  12037 O           1.3304   69.7168   12.0293 O.3   11990  HOH11990    0.0000
  12038 O          45.7649   41.3694   54.6224 O.3   11991  HOH11991    0.0000
  12039 O          54.6224   85.8039    1.3304 O.3   11992  HOH11992    0.0000
  12040 O          12.0293   25.2823   45.7649 O.3   11993  HOH11993    0.0000
  12041 O          56.4638   41.3694   65.3214 O.3   11994  HOH11994    0.0000
  12042 O          10.1879   69.7168   20.8869 O.3   11995  HOH11995    0.0000
  12043 O           1.3304   10.1879   41.3694 O.3   11996  HOH11996    0.0000
  12044 O          45.7649   56.4638   69.7168 O.3   11997  HOH11997    0.0000
  12045 O          65.3214   12.0293   85.8039 O.3   11998  HOH11998    0.0000
  12046 O          20.8869   54.6224   25.2823 O.3   11999  HOH11999    0.0000
  12047 O          41.3694   45.7649   54.6224 O.3   12000  HOH12000    0.0000
  12048 O          69.7168    1.3304   12.0293 O.3   12001  HOH12001    0.0000
  12049 O          85.8039   20.8869   56.4638 O.3   12002  HOH12002    0.0000
  12050 O          25.2823   65.3214   10.1879 O.3   12003  HOH12003    0.0000
  12051 O          19.1522   32.4052   43.1041 O.3   12004  HOH12004    0.0000
  12052 O          47.4996   78.6810   87.5386 O.3   12005  HOH12005    0.0000
  12053 O          63.5867   34.2466   67.9821 O.3   12006  HOH12006    0.0000
  12054 O           3.0651   76.8397   23.5476 O.3   12007  HOH12007    0.0000
  12055 O          32.4052   67.9821    3.0651 O.3   12008  HOH12008    0.0000
  12056 O          78.6810   23.5476   63.5867 O.3   12009  HOH12009    0.0000
  12057 O          34.2466   43.1041   47.4996 O.3   12010  HOH12010    0.0000
  12058 O          76.8397   87.5386   19.1522 O.3   12011  HOH12011    0.0000
  12059 O          67.9821   19.1522   78.6810 O.3   12012  HOH12012    0.0000
  12060 O          23.5476   47.4996   32.4052 O.3   12013  HOH12013    0.0000
  12061 O          43.1041   63.5867   76.8397 O.3   12014  HOH12014    0.0000
  12062 O          87.5386    3.0651   34.2466 O.3   12015  HOH12015    0.0000
  12063 O          34.2466    3.0651   87.5386 O.3   12016  HOH12016    0.0000
  12064 O          76.8397   63.5867   43.1041 O.3   12017  HOH12017    0.0000
  12065 O          32.4052   47.4996   23.5476 O.3   12018  HOH12018    0.0000
  12066 O          78.6810   19.1522   67.9821 O.3   12019  HOH12019    0.0000
  12067 O          87.5386   78.6810   47.4996 O.3   12020  HOH12020    0.0000
  12068 O          43.1041   32.4052   19.1522 O.3   12021  HOH12021    0.0000
  12069 O          23.5476   76.8397    3.0651 O.3   12022  HOH12022    0.0000
  12070 O          67.9821   34.2466   63.5867 O.3   12023  HOH12023    0.0000
  12071 O          47.4996   43.1041   34.2466 O.3   12024  HOH12024    0.0000
  12072 O          19.1522   87.5386   76.8397 O.3   12025  HOH12025    0.0000
  12073 O           3.0651   67.9821   32.4052 O.3   12026  HOH12026    0.0000
  12074 O          63.5867   23.5476   78.6810 O.3   12027  HOH12027    0.0000
  12075 O          69.7168   56.4638   45.7649 O.3   12028  HOH12028    0.0000
  12076 O          41.3694   10.1879    1.3304 O.3   12029  HOH12029    0.0000
  12077 O          25.2823   54.6224   20.8869 O.3   12030  HOH12030    0.0000
  12078 O          85.8039   12.0293   65.3214 O.3   12031  HOH12031    0.0000
  12079 O          56.4638   20.8869   85.8039 O.3   12032  HOH12032    0.0000
  12080 O          10.1879   65.3214   25.2823 O.3   12033  HOH12033    0.0000
  12081 O          54.6224   45.7649   41.3694 O.3   12034  HOH12034    0.0000
  12082 O          12.0293    1.3304   69.7168 O.3   12035  HOH12035    0.0000
  12083 O          20.8869   69.7168   10.1879 O.3   12036  HOH12036    0.0000
  12084 O          65.3214   41.3694   56.4638 O.3   12037  HOH12037    0.0000
  12085 O          45.7649   25.2823   12.0293 O.3   12038  HOH12038    0.0000
  12086 O           1.3304   85.8039   54.6224 O.3   12039  HOH12039    0.0000
  12087 O          54.6224   41.3694   45.7649 O.3   12040  HOH12040    0.0000
  12088 O          12.0293   69.7168    1.3304 O.3   12041  HOH12041    0.0000
  12089 O          56.4638   85.8039   20.8869 O.3   12042  HOH12042    0.0000
  12090 O          10.1879   25.2823   65.3214 O.3   12043  HOH12043    0.0000
  12091 O           1.3304   54.6224   85.8039 O.3   12044  HOH12044    0.0000
  12092 O          45.7649   12.0293   25.2823 O.3   12045  HOH12045    0.0000
  12093 O          65.3214   56.4638   41.3694 O.3   12046  HOH12046    0.0000
  12094 O          20.8869   10.1879   69.7168 O.3   12047  HOH12047    0.0000
  12095 O          41.3694    1.3304   10.1879 O.3   12048  HOH12048    0.0000
  12096 O          69.7168   45.7649   56.4638 O.3   12049  HOH12049    0.0000
  12097 O          85.8039   65.3214   12.0293 O.3   12050  HOH12050    0.0000
  12098 O          25.2823   20.8869   54.6224 O.3   12051  HOH12051    0.0000
  12099 O          19.1522   76.8397   87.5386 O.3   12052  HOH12052    0.0000
  12100 O          47.4996   34.2466   43.1041 O.3   12053  HOH12053    0.0000
  12101 O          63.5867   78.6810   23.5476 O.3   12054  HOH12054    0.0000
  12102 O           3.0651   32.4052   67.9821 O.3   12055  HOH12055    0.0000
  12103 O          32.4052   23.5476   47.4996 O.3   12056  HOH12056    0.0000
  12104 O          78.6810   67.9821   19.1522 O.3   12057  HOH12057    0.0000
  12105 O          34.2466   87.5386    3.0651 O.3   12058  HOH12058    0.0000
  12106 O          76.8397   43.1041   63.5867 O.3   12059  HOH12059    0.0000
  12107 O          67.9821   63.5867   34.2466 O.3   12060  HOH12060    0.0000
  12108 O          23.5476    3.0651   76.8397 O.3   12061  HOH12061    0.0000
  12109 O          43.1041   19.1522   32.4052 O.3   12062  HOH12062    0.0000
  12110 O          87.5386   47.4996   78.6810 O.3   12063  HOH12063    0.0000
  12111 O          34.2466   47.4996   43.1041 O.3   12064  HOH12064    0.0000
  12112 O          76.8397   19.1522   87.5386 O.3   12065  HOH12065    0.0000
  12113 O          32.4052    3.0651   67.9821 O.3   12066  HOH12066    0.0000
  12114 O          78.6810   63.5867   23.5476 O.3   12067  HOH12067    0.0000
  12115 O          87.5386   34.2466    3.0651 O.3   12068  HOH12068    0.0000
  12116 O          43.1041   76.8397   63.5867 O.3   12069  HOH12069    0.0000
  12117 O          23.5476   32.4052   47.4996 O.3   12070  HOH12070    0.0000
  12118 O          67.9821   78.6810   19.1522 O.3   12071  HOH12071    0.0000
  12119 O          47.4996   87.5386   78.6810 O.3   12072  HOH12072    0.0000
  12120 O          19.1522   43.1041   32.4052 O.3   12073  HOH12073    0.0000
  12121 O           3.0651   23.5476   76.8397 O.3   12074  HOH12074    0.0000
  12122 O          63.5867   67.9821   34.2466 O.3   12075  HOH12075    0.0000
  12123 O          69.7168   12.0293    1.3304 O.3   12076  HOH12076    0.0000
  12124 O          41.3694   54.6224   45.7649 O.3   12077  HOH12077    0.0000
  12125 O          25.2823   10.1879   65.3214 O.3   12078  HOH12078    0.0000
  12126 O          85.8039   56.4638   20.8869 O.3   12079  HOH12079    0.0000
  12127 O          56.4638   65.3214   41.3694 O.3   12080  HOH12080    0.0000
  12128 O          10.1879   20.8869   69.7168 O.3   12081  HOH12081    0.0000
  12129 O          54.6224    1.3304   85.8039 O.3   12082  HOH12082    0.0000
  12130 O          12.0293   45.7649   25.2823 O.3   12083  HOH12083    0.0000
  12131 O          20.8869   25.2823   54.6224 O.3   12084  HOH12084    0.0000
  12132 O          65.3214   85.8039   12.0293 O.3   12085  HOH12085    0.0000
  12133 O          45.7649   69.7168   56.4638 O.3   12086  HOH12086    0.0000
  12134 O           1.3304   41.3694   10.1879 O.3   12087  HOH12087    0.0000
  12135 O          59.4000   28.5181   82.5682 O.3   12088  HOH12088    0.0000
  12136 O          14.9655   38.1337   28.5181 O.3   12089  HOH12089    0.0000
  12137 O          51.6862   72.9526   72.9526 O.3   12090  HOH12090    0.0000
  12138 O          38.1337    7.2517   82.5682 O.3   12091  HOH12091    0.0000
  12139 O          82.5682   59.4000   28.5181 O.3   12092  HOH12092    0.0000
  12140 O          28.5181   14.9655   38.1337 O.3   12093  HOH12093    0.0000
  12141 O          72.9526   51.6862   72.9526 O.3   12094  HOH12094    0.0000
  12142 O          82.5682   38.1337    7.2517 O.3   12095  HOH12095    0.0000
  12143 O          28.5181   82.5682   59.4000 O.3   12096  HOH12096    0.0000
  12144 O          38.1337   28.5181   14.9655 O.3   12097  HOH12097    0.0000
  12145 O          72.9526   72.9526   51.6862 O.3   12098  HOH12098    0.0000
  12146 O          60.3509   29.4690    6.3008 O.3   12099  HOH12099    0.0000
  12147 O           6.3008   81.6173   50.7353 O.3   12100  HOH12100    0.0000
  12148 O          15.9164   37.1828   15.9164 O.3   12101  HOH12101    0.0000
  12149 O          50.7353   73.9035   60.3509 O.3   12102  HOH12102    0.0000
  12150 O          73.9035   60.3509   50.7353 O.3   12103  HOH12103    0.0000
  12151 O          37.1828   15.9164   15.9164 O.3   12104  HOH12104    0.0000
  12152 O          81.6173   50.7353    6.3008 O.3   12105  HOH12105    0.0000
  12153 O          29.4690    6.3008   60.3509 O.3   12106  HOH12106    0.0000
  12154 O          15.9164   15.9164   37.1828 O.3   12107  HOH12107    0.0000
  12155 O          60.3509   50.7353   73.9035 O.3   12108  HOH12108    0.0000
  12156 O           6.3008   60.3509   29.4690 O.3   12109  HOH12109    0.0000
  12157 O          50.7353    6.3008   81.6173 O.3   12110  HOH12110    0.0000
  12158 O          81.6173    6.3008   50.7353 O.3   12111  HOH12111    0.0000
  12159 O          29.4690   60.3509    6.3008 O.3   12112  HOH12112    0.0000
  12160 O          73.9035   50.7353   60.3509 O.3   12113  HOH12113    0.0000
  12161 O          50.7353   81.6173    6.3008 O.3   12114  HOH12114    0.0000
  12162 O           6.3008   29.4690   60.3509 O.3   12115  HOH12115    0.0000
  12163 O          60.3509   73.9035   50.7353 O.3   12116  HOH12116    0.0000
  12164 O           6.3008   50.7353   81.6173 O.3   12117  HOH12117    0.0000
  12165 O          60.3509    6.3008   29.4690 O.3   12118  HOH12118    0.0000
  12166 O          50.7353   60.3509   73.9035 O.3   12119  HOH12119    0.0000
  12167 O          28.5181   59.4000   82.5682 O.3   12120  HOH12120    0.0000
  12168 O          82.5682    7.2517   38.1337 O.3   12121  HOH12121    0.0000
  12169 O          38.1337   14.9655   28.5181 O.3   12122  HOH12122    0.0000
  12170 O          14.9655   28.5181   38.1337 O.3   12123  HOH12123    0.0000
  12171 O           7.2517   38.1337   82.5682 O.3   12124  HOH12124    0.0000
  12172 O          59.4000   82.5682   28.5181 O.3   12125  HOH12125    0.0000
  12173 O          28.5181   38.1337   14.9655 O.3   12126  HOH12126    0.0000
  12174 O          82.5682   28.5181   59.4000 O.3   12127  HOH12127    0.0000
  12175 O          38.1337   82.5682    7.2517 O.3   12128  HOH12128    0.0000
  12176 O          59.4000   72.9526   38.1337 O.3   12129  HOH12129    0.0000
  12177 O          14.9655   82.5682   72.9526 O.3   12130  HOH12130    0.0000
  12178 O          51.6862   28.5181   28.5181 O.3   12131  HOH12131    0.0000
  12179 O          38.1337   51.6862   38.1337 O.3   12132  HOH12132    0.0000
  12180 O          82.5682   14.9655   72.9526 O.3   12133  HOH12133    0.0000
  12181 O          72.9526    7.2517   28.5181 O.3   12134  HOH12134    0.0000
  12182 O          82.5682   82.5682   51.6862 O.3   12135  HOH12135    0.0000
  12183 O          38.1337   72.9526   59.4000 O.3   12136  HOH12136    0.0000
  12184 O          72.9526   28.5181    7.2517 O.3   12137  HOH12137    0.0000
  12185 O           6.3008   37.1828    6.3008 O.3   12138  HOH12138    0.0000
  12186 O          15.9164   81.6173   60.3509 O.3   12139  HOH12139    0.0000
  12187 O          50.7353   29.4690   15.9164 O.3   12140  HOH12140    0.0000
  12188 O          73.9035   15.9164    6.3008 O.3   12141  HOH12141    0.0000
  12189 O          37.1828   60.3509   60.3509 O.3   12142  HOH12142    0.0000
  12190 O          29.4690   50.7353   15.9164 O.3   12143  HOH12143    0.0000
  12191 O          15.9164   60.3509   81.6173 O.3   12144  HOH12144    0.0000
  12192 O           6.3008   15.9164   73.9035 O.3   12145  HOH12145    0.0000
  12193 O          50.7353   50.7353   37.1828 O.3   12146  HOH12146    0.0000
  12194 O          29.4690   15.9164   50.7353 O.3   12147  HOH12147    0.0000
  12195 O          73.9035    6.3008   15.9164 O.3   12148  HOH12148    0.0000
  12196 O          50.7353   37.1828   50.7353 O.3   12149  HOH12149    0.0000
  12197 O           6.3008   73.9035   15.9164 O.3   12150  HOH12150    0.0000
  12198 O           6.3008    6.3008   37.1828 O.3   12151  HOH12151    0.0000
  12199 O          50.7353   15.9164   29.4690 O.3   12152  HOH12152    0.0000
  12200 O          82.5682   51.6862   82.5682 O.3   12153  HOH12153    0.0000
  12201 O          38.1337   59.4000   72.9526 O.3   12154  HOH12154    0.0000
  12202 O          14.9655   72.9526   82.5682 O.3   12155  HOH12155    0.0000
  12203 O          59.4000   38.1337   72.9526 O.3   12156  HOH12156    0.0000
  12204 O          82.5682   72.9526   14.9655 O.3   12157  HOH12157    0.0000
  12205 O          38.1337   38.1337   51.6862 O.3   12158  HOH12158    0.0000
  12206 O          51.6862   82.5682   82.5682 O.3   12159  HOH12159    0.0000
  12207 O           7.2517   72.9526   28.5181 O.3   12160  HOH12160    0.0000
  12208 O          72.9526   14.9655   82.5682 O.3   12161  HOH12161    0.0000
  12209 O          28.5181   51.6862   28.5181 O.3   12162  HOH12162    0.0000
  12210 O          72.9526   82.5682   14.9655 O.3   12163  HOH12163    0.0000
  12211 O          28.5181   72.9526    7.2517 O.3   12164  HOH12164    0.0000
  12212 O          15.9164   29.4690   50.7353 O.3   12165  HOH12165    0.0000
  12213 O          60.3509   37.1828   60.3509 O.3   12166  HOH12166    0.0000
  12214 O          81.6173   15.9164   60.3509 O.3   12167  HOH12167    0.0000
  12215 O          37.1828   50.7353   50.7353 O.3   12168  HOH12168    0.0000
  12216 O          60.3509   15.9164   81.6173 O.3   12169  HOH12169    0.0000
  12217 O          15.9164   50.7353   29.4690 O.3   12170  HOH12170    0.0000
  12218 O          37.1828    6.3008    6.3008 O.3   12171  HOH12171    0.0000
  12219 O          15.9164   73.9035    6.3008 O.3   12172  HOH12172    0.0000
  12220 O          15.9164    6.3008   73.9035 O.3   12173  HOH12173    0.0000
  12221 O          72.9526   59.4000   38.1337 O.3   12174  HOH12174    0.0000
  12222 O          51.6862   38.1337   38.1337 O.3   12175  HOH12175    0.0000
  12223 O          72.9526   38.1337   59.4000 O.3   12176  HOH12176    0.0000
  12224 O           7.2517   28.5181   72.9526 O.3   12177  HOH12177    0.0000
  12225 O          28.5181    7.2517   72.9526 O.3   12178  HOH12178    0.0000
  12226 O          28.5181   28.5181   51.6862 O.3   12179  HOH12179    0.0000
  12227 O          60.3509   81.6173   15.9164 O.3   12180  HOH12180    0.0000
  12228 O          81.6173   60.3509   15.9164 O.3   12181  HOH12181    0.0000
  12229 O          60.3509   60.3509   37.1828 O.3   12182  HOH12182    0.0000
  12230 O          52.5038   26.3861   79.3253 O.3   12183  HOH12183    0.0000
  12231 O           8.0693   40.2657   31.7609 O.3   12184  HOH12184    0.0000
  12232 O          58.5824   70.8206   76.1954 O.3   12185  HOH12185    0.0000
  12233 O          34.8909   14.1479   84.7001 O.3   12186  HOH12186    0.0000
  12234 O          79.3253   52.5038   26.3861 O.3   12187  HOH12187    0.0000
  12235 O          31.7609    8.0693   40.2657 O.3   12188  HOH12188    0.0000
  12236 O          76.1954   58.5824   70.8206 O.3   12189  HOH12189    0.0000
  12237 O          84.7001   34.8909   14.1479 O.3   12190  HOH12190    0.0000
  12238 O          26.3861   79.3253   52.5038 O.3   12191  HOH12191    0.0000
  12239 O          40.2657   31.7609    8.0693 O.3   12192  HOH12192    0.0000
  12240 O          70.8206   76.1954   58.5824 O.3   12193  HOH12193    0.0000
  12241 O          62.4829   36.3652    9.5436 O.3   12194  HOH12194    0.0000
  12242 O           4.1688   74.7210   53.9781 O.3   12195  HOH12195    0.0000
  12243 O          18.0484   30.2866   12.6736 O.3   12196  HOH12196    0.0000
  12244 O          48.6033   80.7997   57.1081 O.3   12197  HOH12197    0.0000
  12245 O          80.7997   57.1081   48.6033 O.3   12198  HOH12198    0.0000
  12246 O          30.2866   12.6736   18.0484 O.3   12199  HOH12199    0.0000
  12247 O          74.7210   53.9781    4.1688 O.3   12200  HOH12200    0.0000
  12248 O          36.3652    9.5436   62.4829 O.3   12201  HOH12201    0.0000
  12249 O          12.6736   18.0484   30.2866 O.3   12202  HOH12202    0.0000
  12250 O          57.1081   48.6033   80.7997 O.3   12203  HOH12203    0.0000
  12251 O           9.5436   62.4829   36.3652 O.3   12204  HOH12204    0.0000
  12252 O          53.9781    4.1688   74.7210 O.3   12205  HOH12205    0.0000
  12253 O          74.7210    4.1688   53.9781 O.3   12206  HOH12206    0.0000
  12254 O          36.3652   62.4829    9.5436 O.3   12207  HOH12207    0.0000
  12255 O          80.7997   48.6033   57.1081 O.3   12208  HOH12208    0.0000
  12256 O          30.2866   18.0484   12.6736 O.3   12209  HOH12209    0.0000
  12257 O          53.9781   74.7210    4.1688 O.3   12210  HOH12210    0.0000
  12258 O           9.5436   36.3652   62.4829 O.3   12211  HOH12211    0.0000
  12259 O          57.1081   80.7997   48.6033 O.3   12212  HOH12212    0.0000
  12260 O          12.6736   30.2866   18.0484 O.3   12213  HOH12213    0.0000
  12261 O           4.1688   53.9781   74.7210 O.3   12214  HOH12214    0.0000
  12262 O          62.4829    9.5436   36.3652 O.3   12215  HOH12215    0.0000
  12263 O          48.6033   57.1081   80.7997 O.3   12216  HOH12216    0.0000
  12264 O          18.0484   12.6736   30.2866 O.3   12217  HOH12217    0.0000
  12265 O          26.3861   52.5038   79.3253 O.3   12218  HOH12218    0.0000
  12266 O          84.7001   14.1479   34.8909 O.3   12219  HOH12219    0.0000
  12267 O          70.8206   58.5824   76.1954 O.3   12220  HOH12220    0.0000
  12268 O          40.2657    8.0693   31.7609 O.3   12221  HOH12221    0.0000
  12269 O           8.0693   31.7609   40.2657 O.3   12222  HOH12222    0.0000
  12270 O          58.5824   76.1954   70.8206 O.3   12223  HOH12223    0.0000
  12271 O          14.1479   34.8909   84.7001 O.3   12224  HOH12224    0.0000
  12272 O          52.5038   79.3253   26.3861 O.3   12225  HOH12225    0.0000
  12273 O          76.1954   70.8206   58.5824 O.3   12226  HOH12226    0.0000
  12274 O          31.7609   40.2657    8.0693 O.3   12227  HOH12227    0.0000
  12275 O          79.3253   26.3861   52.5038 O.3   12228  HOH12228    0.0000
  12276 O          34.8909   84.7001   14.1479 O.3   12229  HOH12229    0.0000
  12277 O          14.1479   40.2657   79.3253 O.3   12230  HOH12230    0.0000
  12278 O          52.5038   70.8206   34.8909 O.3   12231  HOH12231    0.0000
  12279 O           8.0693   84.7001   76.1954 O.3   12232  HOH12232    0.0000
  12280 O          58.5824   26.3861   31.7609 O.3   12233  HOH12233    0.0000
  12281 O          34.8909   58.5824   40.2657 O.3   12234  HOH12234    0.0000
  12282 O          79.3253    8.0693   70.8206 O.3   12235  HOH12235    0.0000
  12283 O          31.7609   52.5038   84.7001 O.3   12236  HOH12236    0.0000
  12284 O          76.1954   14.1479   26.3861 O.3   12237  HOH12237    0.0000
  12285 O          84.7001   79.3253   58.5824 O.3   12238  HOH12238    0.0000
  12286 O          26.3861   34.8909    8.0693 O.3   12239  HOH12239    0.0000
  12287 O          40.2657   76.1954   52.5038 O.3   12240  HOH12240    0.0000
  12288 O          70.8206   31.7609   14.1479 O.3   12241  HOH12241    0.0000
  12289 O          62.4829   80.7997   53.9781 O.3   12242  HOH12242    0.0000
  12290 O           4.1688   30.2866    9.5436 O.3   12243  HOH12243    0.0000
  12291 O          18.0484   74.7210   57.1081 O.3   12244  HOH12244    0.0000
  12292 O          48.6033   36.3652   12.6736 O.3   12245  HOH12245    0.0000
  12293 O          80.7997   12.6736    4.1688 O.3   12246  HOH12246    0.0000
  12294 O          30.2866   57.1081   62.4829 O.3   12247  HOH12247    0.0000
  12295 O          74.7210    9.5436   48.6033 O.3   12248  HOH12248    0.0000
  12296 O          36.3652   53.9781   18.0484 O.3   12249  HOH12249    0.0000
  12297 O          12.6736   62.4829   74.7210 O.3   12250  HOH12250    0.0000
  12298 O          57.1081    4.1688   36.3652 O.3   12251  HOH12251    0.0000
  12299 O           9.5436   18.0484   80.7997 O.3   12252  HOH12252    0.0000
  12300 O          53.9781   48.6033   30.2866 O.3   12253  HOH12253    0.0000
  12301 O          74.7210   48.6033    9.5436 O.3   12254  HOH12254    0.0000
  12302 O          36.3652   18.0484   53.9781 O.3   12255  HOH12255    0.0000
  12303 O          80.7997    4.1688   12.6736 O.3   12256  HOH12256    0.0000
  12304 O          30.2866   62.4829   57.1081 O.3   12257  HOH12257    0.0000
  12305 O          53.9781   30.2866   48.6033 O.3   12258  HOH12258    0.0000
  12306 O           9.5436   80.7997   18.0484 O.3   12259  HOH12259    0.0000
  12307 O          57.1081   36.3652    4.1688 O.3   12260  HOH12260    0.0000
  12308 O          12.6736   74.7210   62.4829 O.3   12261  HOH12261    0.0000
  12309 O           4.1688    9.5436   30.2866 O.3   12262  HOH12262    0.0000
  12310 O          62.4829   53.9781   80.7997 O.3   12263  HOH12263    0.0000
  12311 O          48.6033   12.6736   36.3652 O.3   12264  HOH12264    0.0000
  12312 O          18.0484   57.1081   74.7210 O.3   12265  HOH12265    0.0000
  12313 O          26.3861    8.0693   34.8909 O.3   12266  HOH12266    0.0000
  12314 O          84.7001   58.5824   79.3253 O.3   12267  HOH12267    0.0000
  12315 O          70.8206   14.1479   31.7609 O.3   12268  HOH12268    0.0000
  12316 O          40.2657   52.5038   76.1954 O.3   12269  HOH12269    0.0000
  12317 O           8.0693   76.1954   84.7001 O.3   12270  HOH12270    0.0000
  12318 O          58.5824   31.7609   26.3861 O.3   12271  HOH12271    0.0000
  12319 O          14.1479   79.3253   40.2657 O.3   12272  HOH12272    0.0000
  12320 O          52.5038   34.8909   70.8206 O.3   12273  HOH12273    0.0000
  12321 O          76.1954   26.3861   14.1479 O.3   12274  HOH12274    0.0000
  12322 O          31.7609   84.7001   52.5038 O.3   12275  HOH12275    0.0000
  12323 O          79.3253   70.8206    8.0693 O.3   12276  HOH12276    0.0000
  12324 O          34.8909   40.2657   58.5824 O.3   12277  HOH12277    0.0000
  12325 O          58.5824   84.7001   79.3253 O.3   12278  HOH12278    0.0000
  12326 O           8.0693   26.3861   34.8909 O.3   12279  HOH12279    0.0000
  12327 O          52.5038   40.2657   76.1954 O.3   12280  HOH12280    0.0000
  12328 O          14.1479   70.8206   31.7609 O.3   12281  HOH12281    0.0000
  12329 O          79.3253   14.1479   40.2657 O.3   12282  HOH12282    0.0000
  12330 O          34.8909   52.5038   70.8206 O.3   12283  HOH12283    0.0000
  12331 O          76.1954    8.0693   84.7001 O.3   12284  HOH12284    0.0000
  12332 O          31.7609   58.5824   26.3861 O.3   12285  HOH12285    0.0000
  12333 O          40.2657   34.8909   58.5824 O.3   12286  HOH12286    0.0000
  12334 O          70.8206   79.3253    8.0693 O.3   12287  HOH12287    0.0000
  12335 O          84.7001   31.7609   52.5038 O.3   12288  HOH12288    0.0000
  12336 O          26.3861   76.1954   14.1479 O.3   12289  HOH12289    0.0000
  12337 O          18.0484   36.3652   53.9781 O.3   12290  HOH12290    0.0000
  12338 O          48.6033   74.7210    9.5436 O.3   12291  HOH12291    0.0000
  12339 O          62.4829   30.2866   57.1081 O.3   12292  HOH12292    0.0000
  12340 O           4.1688   80.7997   12.6736 O.3   12293  HOH12293    0.0000
  12341 O          36.3652   57.1081    4.1688 O.3   12294  HOH12294    0.0000
  12342 O          74.7210   12.6736   62.4829 O.3   12295  HOH12295    0.0000
  12343 O          30.2866   53.9781   48.6033 O.3   12296  HOH12296    0.0000
  12344 O          80.7997    9.5436   18.0484 O.3   12297  HOH12297    0.0000
  12345 O          57.1081   18.0484   74.7210 O.3   12298  HOH12298    0.0000
  12346 O          12.6736   48.6033   36.3652 O.3   12299  HOH12299    0.0000
  12347 O          53.9781   62.4829   80.7997 O.3   12300  HOH12300    0.0000
  12348 O           9.5436    4.1688   30.2866 O.3   12301  HOH12301    0.0000
  12349 O          30.2866    4.1688    9.5436 O.3   12302  HOH12302    0.0000
  12350 O          80.7997   62.4829   53.9781 O.3   12303  HOH12303    0.0000
  12351 O          36.3652   48.6033   12.6736 O.3   12304  HOH12304    0.0000
  12352 O          74.7210   18.0484   57.1081 O.3   12305  HOH12305    0.0000
  12353 O           9.5436   74.7210   48.6033 O.3   12306  HOH12306    0.0000
  12354 O          53.9781   36.3652   18.0484 O.3   12307  HOH12307    0.0000
  12355 O          12.6736   80.7997    4.1688 O.3   12308  HOH12308    0.0000
  12356 O          57.1081   30.2866   62.4829 O.3   12309  HOH12309    0.0000
  12357 O          48.6033   53.9781   30.2866 O.3   12310  HOH12310    0.0000
  12358 O          18.0484    9.5436   80.7997 O.3   12311  HOH12311    0.0000
  12359 O           4.1688   57.1081   36.3652 O.3   12312  HOH12312    0.0000
  12360 O          62.4829   12.6736   74.7210 O.3   12313  HOH12313    0.0000
  12361 O          70.8206   52.5038   34.8909 O.3   12314  HOH12314    0.0000
  12362 O          40.2657   14.1479   79.3253 O.3   12315  HOH12315    0.0000
  12363 O          26.3861   58.5824   31.7609 O.3   12316  HOH12316    0.0000
  12364 O          84.7001    8.0693   76.1954 O.3   12317  HOH12317    0.0000
  12365 O          52.5038   31.7609   84.7001 O.3   12318  HOH12318    0.0000
  12366 O          14.1479   76.1954   26.3861 O.3   12319  HOH12319    0.0000
  12367 O          58.5824   34.8909   40.2657 O.3   12320  HOH12320    0.0000
  12368 O           8.0693   79.3253   70.8206 O.3   12321  HOH12321    0.0000
  12369 O          31.7609   70.8206   14.1479 O.3   12322  HOH12322    0.0000
  12370 O          76.1954   40.2657   52.5038 O.3   12323  HOH12323    0.0000
  12371 O          34.8909   26.3861    8.0693 O.3   12324  HOH12324    0.0000
  12372 O          79.3253   84.7001   58.5824 O.3   12325  HOH12325    0.0000
  12373 O          58.5824   40.2657   34.8909 O.3   12326  HOH12326    0.0000
  12374 O           8.0693   70.8206   79.3253 O.3   12327  HOH12327    0.0000
  12375 O          52.5038   84.7001   31.7609 O.3   12328  HOH12328    0.0000
  12376 O          14.1479   26.3861   76.1954 O.3   12329  HOH12329    0.0000
  12377 O          79.3253   58.5824   84.7001 O.3   12330  HOH12330    0.0000
  12378 O          34.8909    8.0693   26.3861 O.3   12331  HOH12331    0.0000
  12379 O          76.1954   52.5038   40.2657 O.3   12332  HOH12332    0.0000
  12380 O          31.7609   14.1479   70.8206 O.3   12333  HOH12333    0.0000
  12381 O          40.2657   79.3253   14.1479 O.3   12334  HOH12334    0.0000
  12382 O          70.8206   34.8909   52.5038 O.3   12335  HOH12335    0.0000
  12383 O          84.7001   76.1954    8.0693 O.3   12336  HOH12336    0.0000
  12384 O          26.3861   31.7609   58.5824 O.3   12337  HOH12337    0.0000
  12385 O          18.0484   80.7997    9.5436 O.3   12338  HOH12338    0.0000
  12386 O          48.6033   30.2866   53.9781 O.3   12339  HOH12339    0.0000
  12387 O          62.4829   74.7210   12.6736 O.3   12340  HOH12340    0.0000
  12388 O           4.1688   36.3652   57.1081 O.3   12341  HOH12341    0.0000
  12389 O          36.3652   12.6736   48.6033 O.3   12342  HOH12342    0.0000
  12390 O          74.7210   57.1081   18.0484 O.3   12343  HOH12343    0.0000
  12391 O          30.2866    9.5436    4.1688 O.3   12344  HOH12344    0.0000
  12392 O          80.7997   53.9781   62.4829 O.3   12345  HOH12345    0.0000
  12393 O          57.1081   62.4829   30.2866 O.3   12346  HOH12346    0.0000
  12394 O          12.6736    4.1688   80.7997 O.3   12347  HOH12347    0.0000
  12395 O          53.9781   18.0484   36.3652 O.3   12348  HOH12348    0.0000
  12396 O           9.5436   48.6033   74.7210 O.3   12349  HOH12349    0.0000
  12397 O          30.2866   48.6033   53.9781 O.3   12350  HOH12350    0.0000
  12398 O          80.7997   18.0484    9.5436 O.3   12351  HOH12351    0.0000
  12399 O          36.3652    4.1688   57.1081 O.3   12352  HOH12352    0.0000
  12400 O          74.7210   62.4829   12.6736 O.3   12353  HOH12353    0.0000
  12401 O           9.5436   30.2866    4.1688 O.3   12354  HOH12354    0.0000
  12402 O          53.9781   80.7997   62.4829 O.3   12355  HOH12355    0.0000
  12403 O          12.6736   36.3652   48.6033 O.3   12356  HOH12356    0.0000
  12404 O          57.1081   74.7210   18.0484 O.3   12357  HOH12357    0.0000
  12405 O          48.6033    9.5436   74.7210 O.3   12358  HOH12358    0.0000
  12406 O          18.0484   53.9781   36.3652 O.3   12359  HOH12359    0.0000
  12407 O           4.1688   12.6736   80.7997 O.3   12360  HOH12360    0.0000
  12408 O          62.4829   57.1081   30.2866 O.3   12361  HOH12361    0.0000
  12409 O          70.8206    8.0693   79.3253 O.3   12362  HOH12362    0.0000
  12410 O          40.2657   58.5824   34.8909 O.3   12363  HOH12363    0.0000
  12411 O          26.3861   14.1479   76.1954 O.3   12364  HOH12364    0.0000
  12412 O          84.7001   52.5038   31.7609 O.3   12365  HOH12365    0.0000
  12413 O          52.5038   76.1954   40.2657 O.3   12366  HOH12366    0.0000
  12414 O          14.1479   31.7609   70.8206 O.3   12367  HOH12367    0.0000
  12415 O          58.5824   79.3253   84.7001 O.3   12368  HOH12368    0.0000
  12416 O           8.0693   34.8909   26.3861 O.3   12369  HOH12369    0.0000
  12417 O          31.7609   26.3861   58.5824 O.3   12370  HOH12370    0.0000
  12418 O          76.1954   84.7001    8.0693 O.3   12371  HOH12371    0.0000
  12419 O          34.8909   70.8206   52.5038 O.3   12372  HOH12372    0.0000
  12420 O          79.3253   40.2657   14.1479 O.3   12373  HOH12373    0.0000
  12421 O          54.8099   24.8789   86.2074 O.3   12374  HOH12374    0.0000
  12422 O          10.3755   41.7729   24.8789 O.3   12375  HOH12375    0.0000
  12423 O          56.2763   69.3134   69.3134 O.3   12376  HOH12376    0.0000
  12424 O          41.7729   11.8418   86.2074 O.3   12377  HOH12377    0.0000
  12425 O          86.2074   54.8099   24.8789 O.3   12378  HOH12378    0.0000
  12426 O          24.8789   10.3755   41.7729 O.3   12379  HOH12379    0.0000
  12427 O          69.3134   56.2763   69.3134 O.3   12380  HOH12380    0.0000
  12428 O          86.2074   41.7729   11.8418 O.3   12381  HOH12381    0.0000
  12429 O          24.8789   86.2074   54.8099 O.3   12382  HOH12382    0.0000
  12430 O          41.7729   24.8789   10.3755 O.3   12383  HOH12383    0.0000
  12431 O          69.3134   69.3134   56.2763 O.3   12384  HOH12384    0.0000
  12432 O          63.9901   34.0590    2.6616 O.3   12385  HOH12385    0.0000
  12433 O           2.6616   77.0272   47.0961 O.3   12386  HOH12386    0.0000
  12434 O          19.5556   32.5927   19.5556 O.3   12387  HOH12387    0.0000
  12435 O          47.0961   78.4935   63.9901 O.3   12388  HOH12388    0.0000
  12436 O          78.4935   63.9901   47.0961 O.3   12389  HOH12389    0.0000
  12437 O          32.5927   19.5556   19.5556 O.3   12390  HOH12390    0.0000
  12438 O          77.0272   47.0961    2.6616 O.3   12391  HOH12391    0.0000
  12439 O          34.0590    2.6616   63.9901 O.3   12392  HOH12392    0.0000
  12440 O          19.5556   19.5556   32.5927 O.3   12393  HOH12393    0.0000
  12441 O          63.9901   47.0961   78.4935 O.3   12394  HOH12394    0.0000
  12442 O           2.6616   63.9901   34.0590 O.3   12395  HOH12395    0.0000
  12443 O          47.0961    2.6616   77.0272 O.3   12396  HOH12396    0.0000
  12444 O          77.0272    2.6616   47.0961 O.3   12397  HOH12397    0.0000
  12445 O          34.0590   63.9901    2.6616 O.3   12398  HOH12398    0.0000
  12446 O          78.4935   47.0961   63.9901 O.3   12399  HOH12399    0.0000
  12447 O          47.0961   77.0272    2.6616 O.3   12400  HOH12400    0.0000
  12448 O           2.6616   34.0590   63.9901 O.3   12401  HOH12401    0.0000
  12449 O          63.9901   78.4935   47.0961 O.3   12402  HOH12402    0.0000
  12450 O           2.6616   47.0961   77.0272 O.3   12403  HOH12403    0.0000
  12451 O          63.9901    2.6616   34.0590 O.3   12404  HOH12404    0.0000
  12452 O          47.0961   63.9901   78.4935 O.3   12405  HOH12405    0.0000
  12453 O          24.8789   54.8099   86.2074 O.3   12406  HOH12406    0.0000
  12454 O          86.2074   11.8418   41.7729 O.3   12407  HOH12407    0.0000
  12455 O          41.7729   10.3755   24.8789 O.3   12408  HOH12408    0.0000
  12456 O          10.3755   24.8789   41.7729 O.3   12409  HOH12409    0.0000
  12457 O          11.8418   41.7729   86.2074 O.3   12410  HOH12410    0.0000
  12458 O          54.8099   86.2074   24.8789 O.3   12411  HOH12411    0.0000
  12459 O          24.8789   41.7729   10.3755 O.3   12412  HOH12412    0.0000
  12460 O          86.2074   24.8789   54.8099 O.3   12413  HOH12413    0.0000
  12461 O          41.7729   86.2074   11.8418 O.3   12414  HOH12414    0.0000
  12462 O          54.8099   69.3134   41.7729 O.3   12415  HOH12415    0.0000
  12463 O          10.3755   86.2074   69.3134 O.3   12416  HOH12416    0.0000
  12464 O          56.2763   24.8789   24.8789 O.3   12417  HOH12417    0.0000
  12465 O          41.7729   56.2763   41.7729 O.3   12418  HOH12418    0.0000
  12466 O          86.2074   10.3755   69.3134 O.3   12419  HOH12419    0.0000
  12467 O          69.3134   11.8418   24.8789 O.3   12420  HOH12420    0.0000
  12468 O          86.2074   86.2074   56.2763 O.3   12421  HOH12421    0.0000
  12469 O          41.7729   69.3134   54.8099 O.3   12422  HOH12422    0.0000
  12470 O          69.3134   24.8789   11.8418 O.3   12423  HOH12423    0.0000
  12471 O           2.6616   32.5927    2.6616 O.3   12424  HOH12424    0.0000
  12472 O          19.5556   77.0272   63.9901 O.3   12425  HOH12425    0.0000
  12473 O          47.0961   34.0590   19.5556 O.3   12426  HOH12426    0.0000
  12474 O          78.4935   19.5556    2.6616 O.3   12427  HOH12427    0.0000
  12475 O          32.5927   63.9901   63.9901 O.3   12428  HOH12428    0.0000
  12476 O          34.0590   47.0961   19.5556 O.3   12429  HOH12429    0.0000
  12477 O          19.5556   63.9901   77.0272 O.3   12430  HOH12430    0.0000
  12478 O           2.6616   19.5556   78.4935 O.3   12431  HOH12431    0.0000
  12479 O          47.0961   47.0961   32.5927 O.3   12432  HOH12432    0.0000
  12480 O          34.0590   19.5556   47.0961 O.3   12433  HOH12433    0.0000
  12481 O          78.4935    2.6616   19.5556 O.3   12434  HOH12434    0.0000
  12482 O          47.0961   32.5927   47.0961 O.3   12435  HOH12435    0.0000
  12483 O           2.6616   78.4935   19.5556 O.3   12436  HOH12436    0.0000
  12484 O           2.6616    2.6616   32.5927 O.3   12437  HOH12437    0.0000
  12485 O          47.0961   19.5556   34.0590 O.3   12438  HOH12438    0.0000
  12486 O          86.2074   56.2763   86.2074 O.3   12439  HOH12439    0.0000
  12487 O          41.7729   54.8099   69.3134 O.3   12440  HOH12440    0.0000
  12488 O          10.3755   69.3134   86.2074 O.3   12441  HOH12441    0.0000
  12489 O          54.8099   41.7729   69.3134 O.3   12442  HOH12442    0.0000
  12490 O          86.2074   69.3134   10.3755 O.3   12443  HOH12443    0.0000
  12491 O          41.7729   41.7729   56.2763 O.3   12444  HOH12444    0.0000
  12492 O          56.2763   86.2074   86.2074 O.3   12445  HOH12445    0.0000
  12493 O          11.8418   69.3134   24.8789 O.3   12446  HOH12446    0.0000
  12494 O          69.3134   10.3755   86.2074 O.3   12447  HOH12447    0.0000
  12495 O          24.8789   56.2763   24.8789 O.3   12448  HOH12448    0.0000
  12496 O          69.3134   86.2074   10.3755 O.3   12449  HOH12449    0.0000
  12497 O          24.8789   69.3134   11.8418 O.3   12450  HOH12450    0.0000
  12498 O          19.5556   34.0590   47.0961 O.3   12451  HOH12451    0.0000
  12499 O          63.9901   32.5927   63.9901 O.3   12452  HOH12452    0.0000
  12500 O          77.0272   19.5556   63.9901 O.3   12453  HOH12453    0.0000
  12501 O          32.5927   47.0961   47.0961 O.3   12454  HOH12454    0.0000
  12502 O          63.9901   19.5556   77.0272 O.3   12455  HOH12455    0.0000
  12503 O          19.5556   47.0961   34.0590 O.3   12456  HOH12456    0.0000
  12504 O          32.5927    2.6616    2.6616 O.3   12457  HOH12457    0.0000
  12505 O          19.5556   78.4935    2.6616 O.3   12458  HOH12458    0.0000
  12506 O          19.5556    2.6616   78.4935 O.3   12459  HOH12459    0.0000
  12507 O          69.3134   54.8099   41.7729 O.3   12460  HOH12460    0.0000
  12508 O          56.2763   41.7729   41.7729 O.3   12461  HOH12461    0.0000
  12509 O          69.3134   41.7729   54.8099 O.3   12462  HOH12462    0.0000
  12510 O          11.8418   24.8789   69.3134 O.3   12463  HOH12463    0.0000
  12511 O          24.8789   11.8418   69.3134 O.3   12464  HOH12464    0.0000
  12512 O          24.8789   24.8789   56.2763 O.3   12465  HOH12465    0.0000
  12513 O          63.9901   77.0272   19.5556 O.3   12466  HOH12466    0.0000
  12514 O          77.0272   63.9901   19.5556 O.3   12467  HOH12467    0.0000
  12515 O          63.9901   63.9901   32.5927 O.3   12468  HOH12468    0.0000
  12516 O          52.7660   23.9484   78.3069 O.3   12469  HOH12469    0.0000
  12517 O           8.3315   42.7033   32.7793 O.3   12470  HOH12470    0.0000
  12518 O          58.3203   68.3829   77.2138 O.3   12471  HOH12471    0.0000
  12519 O          33.8724   13.8858   87.1378 O.3   12472  HOH12472    0.0000
  12520 O          78.3069   52.7660   23.9484 O.3   12473  HOH12473    0.0000
  12521 O          32.7793    8.3315   42.7033 O.3   12474  HOH12474    0.0000
  12522 O          77.2138   58.3203   68.3829 O.3   12475  HOH12475    0.0000
  12523 O          87.1378   33.8724   13.8858 O.3   12476  HOH12476    0.0000
  12524 O          23.9484   78.3069   52.7660 O.3   12477  HOH12477    0.0000
  12525 O          42.7033   32.7793    8.3315 O.3   12478  HOH12478    0.0000
  12526 O          68.3829   77.2138   58.3203 O.3   12479  HOH12479    0.0000
  12527 O          64.9206   36.1030   10.5621 O.3   12480  HOH12480    0.0000
  12528 O           1.7312   74.9832   54.9966 O.3   12481  HOH12481    0.0000
  12529 O          20.4861   30.5487   11.6552 O.3   12482  HOH12482    0.0000
  12530 O          46.1657   80.5375   56.0897 O.3   12483  HOH12483    0.0000
  12531 O          80.5375   56.0897   46.1657 O.3   12484  HOH12484    0.0000
  12532 O          30.5487   11.6552   20.4861 O.3   12485  HOH12485    0.0000
  12533 O          74.9832   54.9966    1.7312 O.3   12486  HOH12486    0.0000
  12534 O          36.1030   10.5621   64.9206 O.3   12487  HOH12487    0.0000
  12535 O          11.6552   20.4861   30.5487 O.3   12488  HOH12488    0.0000
  12536 O          56.0897   46.1657   80.5375 O.3   12489  HOH12489    0.0000
  12537 O          10.5621   64.9206   36.1030 O.3   12490  HOH12490    0.0000
  12538 O          54.9966    1.7312   74.9832 O.3   12491  HOH12491    0.0000
  12539 O          74.9832    1.7312   54.9966 O.3   12492  HOH12492    0.0000
  12540 O          36.1030   64.9206   10.5621 O.3   12493  HOH12493    0.0000
  12541 O          80.5375   46.1657   56.0897 O.3   12494  HOH12494    0.0000
  12542 O          30.5487   20.4861   11.6552 O.3   12495  HOH12495    0.0000
  12543 O          54.9966   74.9832    1.7312 O.3   12496  HOH12496    0.0000
  12544 O          10.5621   36.1030   64.9206 O.3   12497  HOH12497    0.0000
  12545 O          56.0897   80.5375   46.1657 O.3   12498  HOH12498    0.0000
  12546 O          11.6552   30.5487   20.4861 O.3   12499  HOH12499    0.0000
  12547 O           1.7312   54.9966   74.9832 O.3   12500  HOH12500    0.0000
  12548 O          64.9206   10.5621   36.1030 O.3   12501  HOH12501    0.0000
  12549 O          46.1657   56.0897   80.5375 O.3   12502  HOH12502    0.0000
  12550 O          20.4861   11.6552   30.5487 O.3   12503  HOH12503    0.0000
  12551 O          23.9484   52.7660   78.3069 O.3   12504  HOH12504    0.0000
  12552 O          87.1378   13.8858   33.8724 O.3   12505  HOH12505    0.0000
  12553 O          68.3829   58.3203   77.2138 O.3   12506  HOH12506    0.0000
  12554 O          42.7033    8.3315   32.7793 O.3   12507  HOH12507    0.0000
  12555 O           8.3315   32.7793   42.7033 O.3   12508  HOH12508    0.0000
  12556 O          58.3203   77.2138   68.3829 O.3   12509  HOH12509    0.0000
  12557 O          13.8858   33.8724   87.1378 O.3   12510  HOH12510    0.0000
  12558 O          52.7660   78.3069   23.9484 O.3   12511  HOH12511    0.0000
  12559 O          77.2138   68.3829   58.3203 O.3   12512  HOH12512    0.0000
  12560 O          32.7793   42.7033    8.3315 O.3   12513  HOH12513    0.0000
  12561 O          78.3069   23.9484   52.7660 O.3   12514  HOH12514    0.0000
  12562 O          33.8724   87.1378   13.8858 O.3   12515  HOH12515    0.0000
  12563 O          13.8858   42.7033   78.3069 O.3   12516  HOH12516    0.0000
  12564 O          52.7660   68.3829   33.8724 O.3   12517  HOH12517    0.0000
  12565 O           8.3315   87.1378   77.2138 O.3   12518  HOH12518    0.0000
  12566 O          58.3203   23.9484   32.7793 O.3   12519  HOH12519    0.0000
  12567 O          33.8724   58.3203   42.7033 O.3   12520  HOH12520    0.0000
  12568 O          78.3069    8.3315   68.3829 O.3   12521  HOH12521    0.0000
  12569 O          32.7793   52.7660   87.1378 O.3   12522  HOH12522    0.0000
  12570 O          77.2138   13.8858   23.9484 O.3   12523  HOH12523    0.0000
  12571 O          87.1378   78.3069   58.3203 O.3   12524  HOH12524    0.0000
  12572 O          23.9484   33.8724    8.3315 O.3   12525  HOH12525    0.0000
  12573 O          42.7033   77.2138   52.7660 O.3   12526  HOH12526    0.0000
  12574 O          68.3829   32.7793   13.8858 O.3   12527  HOH12527    0.0000
  12575 O          64.9206   80.5375   54.9966 O.3   12528  HOH12528    0.0000
  12576 O           1.7312   30.5487   10.5621 O.3   12529  HOH12529    0.0000
  12577 O          20.4861   74.9832   56.0897 O.3   12530  HOH12530    0.0000
  12578 O          46.1657   36.1030   11.6552 O.3   12531  HOH12531    0.0000
  12579 O          80.5375   11.6552    1.7312 O.3   12532  HOH12532    0.0000
  12580 O          30.5487   56.0897   64.9206 O.3   12533  HOH12533    0.0000
  12581 O          74.9832   10.5621   46.1657 O.3   12534  HOH12534    0.0000
  12582 O          36.1030   54.9966   20.4861 O.3   12535  HOH12535    0.0000
  12583 O          11.6552   64.9206   74.9832 O.3   12536  HOH12536    0.0000
  12584 O          56.0897    1.7312   36.1030 O.3   12537  HOH12537    0.0000
  12585 O          10.5621   20.4861   80.5375 O.3   12538  HOH12538    0.0000
  12586 O          54.9966   46.1657   30.5487 O.3   12539  HOH12539    0.0000
  12587 O          74.9832   46.1657   10.5621 O.3   12540  HOH12540    0.0000
  12588 O          36.1030   20.4861   54.9966 O.3   12541  HOH12541    0.0000
  12589 O          80.5375    1.7312   11.6552 O.3   12542  HOH12542    0.0000
  12590 O          30.5487   64.9206   56.0897 O.3   12543  HOH12543    0.0000
  12591 O          54.9966   30.5487   46.1657 O.3   12544  HOH12544    0.0000
  12592 O          10.5621   80.5375   20.4861 O.3   12545  HOH12545    0.0000
  12593 O          56.0897   36.1030    1.7312 O.3   12546  HOH12546    0.0000
  12594 O          11.6552   74.9832   64.9206 O.3   12547  HOH12547    0.0000
  12595 O           1.7312   10.5621   30.5487 O.3   12548  HOH12548    0.0000
  12596 O          64.9206   54.9966   80.5375 O.3   12549  HOH12549    0.0000
  12597 O          46.1657   11.6552   36.1030 O.3   12550  HOH12550    0.0000
  12598 O          20.4861   56.0897   74.9832 O.3   12551  HOH12551    0.0000
  12599 O          23.9484    8.3315   33.8724 O.3   12552  HOH12552    0.0000
  12600 O          87.1378   58.3203   78.3069 O.3   12553  HOH12553    0.0000
  12601 O          68.3829   13.8858   32.7793 O.3   12554  HOH12554    0.0000
  12602 O          42.7033   52.7660   77.2138 O.3   12555  HOH12555    0.0000
  12603 O           8.3315   77.2138   87.1378 O.3   12556  HOH12556    0.0000
  12604 O          58.3203   32.7793   23.9484 O.3   12557  HOH12557    0.0000
  12605 O          13.8858   78.3069   42.7033 O.3   12558  HOH12558    0.0000
  12606 O          52.7660   33.8724   68.3829 O.3   12559  HOH12559    0.0000
  12607 O          77.2138   23.9484   13.8858 O.3   12560  HOH12560    0.0000
  12608 O          32.7793   87.1378   52.7660 O.3   12561  HOH12561    0.0000
  12609 O          78.3069   68.3829    8.3315 O.3   12562  HOH12562    0.0000
  12610 O          33.8724   42.7033   58.3203 O.3   12563  HOH12563    0.0000
  12611 O          58.3203   87.1378   78.3069 O.3   12564  HOH12564    0.0000
  12612 O           8.3315   23.9484   33.8724 O.3   12565  HOH12565    0.0000
  12613 O          52.7660   42.7033   77.2138 O.3   12566  HOH12566    0.0000
  12614 O          13.8858   68.3829   32.7793 O.3   12567  HOH12567    0.0000
  12615 O          78.3069   13.8858   42.7033 O.3   12568  HOH12568    0.0000
  12616 O          33.8724   52.7660   68.3829 O.3   12569  HOH12569    0.0000
  12617 O          77.2138    8.3315   87.1378 O.3   12570  HOH12570    0.0000
  12618 O          32.7793   58.3203   23.9484 O.3   12571  HOH12571    0.0000
  12619 O          42.7033   33.8724   58.3203 O.3   12572  HOH12572    0.0000
  12620 O          68.3829   78.3069    8.3315 O.3   12573  HOH12573    0.0000
  12621 O          87.1378   32.7793   52.7660 O.3   12574  HOH12574    0.0000
  12622 O          23.9484   77.2138   13.8858 O.3   12575  HOH12575    0.0000
  12623 O          20.4861   36.1030   54.9966 O.3   12576  HOH12576    0.0000
  12624 O          46.1657   74.9832   10.5621 O.3   12577  HOH12577    0.0000
  12625 O          64.9206   30.5487   56.0897 O.3   12578  HOH12578    0.0000
  12626 O           1.7312   80.5375   11.6552 O.3   12579  HOH12579    0.0000
  12627 O          36.1030   56.0897    1.7312 O.3   12580  HOH12580    0.0000
  12628 O          74.9832   11.6552   64.9206 O.3   12581  HOH12581    0.0000
  12629 O          30.5487   54.9966   46.1657 O.3   12582  HOH12582    0.0000
  12630 O          80.5375   10.5621   20.4861 O.3   12583  HOH12583    0.0000
  12631 O          56.0897   20.4861   74.9832 O.3   12584  HOH12584    0.0000
  12632 O          11.6552   46.1657   36.1030 O.3   12585  HOH12585    0.0000
  12633 O          54.9966   64.9206   80.5375 O.3   12586  HOH12586    0.0000
  12634 O          10.5621    1.7312   30.5487 O.3   12587  HOH12587    0.0000
  12635 O          30.5487    1.7312   10.5621 O.3   12588  HOH12588    0.0000
  12636 O          80.5375   64.9206   54.9966 O.3   12589  HOH12589    0.0000
  12637 O          36.1030   46.1657   11.6552 O.3   12590  HOH12590    0.0000
  12638 O          74.9832   20.4861   56.0897 O.3   12591  HOH12591    0.0000
  12639 O          10.5621   74.9832   46.1657 O.3   12592  HOH12592    0.0000
  12640 O          54.9966   36.1030   20.4861 O.3   12593  HOH12593    0.0000
  12641 O          11.6552   80.5375    1.7312 O.3   12594  HOH12594    0.0000
  12642 O          56.0897   30.5487   64.9206 O.3   12595  HOH12595    0.0000
  12643 O          46.1657   54.9966   30.5487 O.3   12596  HOH12596    0.0000
  12644 O          20.4861   10.5621   80.5375 O.3   12597  HOH12597    0.0000
  12645 O           1.7312   56.0897   36.1030 O.3   12598  HOH12598    0.0000
  12646 O          64.9206   11.6552   74.9832 O.3   12599  HOH12599    0.0000
  12647 O          68.3829   52.7660   33.8724 O.3   12600  HOH12600    0.0000
  12648 O          42.7033   13.8858   78.3069 O.3   12601  HOH12601    0.0000
  12649 O          23.9484   58.3203   32.7793 O.3   12602  HOH12602    0.0000
  12650 O          87.1378    8.3315   77.2138 O.3   12603  HOH12603    0.0000
  12651 O          52.7660   32.7793   87.1378 O.3   12604  HOH12604    0.0000
  12652 O          13.8858   77.2138   23.9484 O.3   12605  HOH12605    0.0000
  12653 O          58.3203   33.8724   42.7033 O.3   12606  HOH12606    0.0000
  12654 O           8.3315   78.3069   68.3829 O.3   12607  HOH12607    0.0000
  12655 O          32.7793   68.3829   13.8858 O.3   12608  HOH12608    0.0000
  12656 O          77.2138   42.7033   52.7660 O.3   12609  HOH12609    0.0000
  12657 O          33.8724   23.9484    8.3315 O.3   12610  HOH12610    0.0000
  12658 O          78.3069   87.1378   58.3203 O.3   12611  HOH12611    0.0000
  12659 O          58.3203   42.7033   33.8724 O.3   12612  HOH12612    0.0000
  12660 O           8.3315   68.3829   78.3069 O.3   12613  HOH12613    0.0000
  12661 O          52.7660   87.1378   32.7793 O.3   12614  HOH12614    0.0000
  12662 O          13.8858   23.9484   77.2138 O.3   12615  HOH12615    0.0000
  12663 O          78.3069   58.3203   87.1378 O.3   12616  HOH12616    0.0000
  12664 O          33.8724    8.3315   23.9484 O.3   12617  HOH12617    0.0000
  12665 O          77.2138   52.7660   42.7033 O.3   12618  HOH12618    0.0000
  12666 O          32.7793   13.8858   68.3829 O.3   12619  HOH12619    0.0000
  12667 O          42.7033   78.3069   13.8858 O.3   12620  HOH12620    0.0000
  12668 O          68.3829   33.8724   52.7660 O.3   12621  HOH12621    0.0000
  12669 O          87.1378   77.2138    8.3315 O.3   12622  HOH12622    0.0000
  12670 O          23.9484   32.7793   58.3203 O.3   12623  HOH12623    0.0000
  12671 O          20.4861   80.5375   10.5621 O.3   12624  HOH12624    0.0000
  12672 O          46.1657   30.5487   54.9966 O.3   12625  HOH12625    0.0000
  12673 O          64.9206   74.9832   11.6552 O.3   12626  HOH12626    0.0000
  12674 O           1.7312   36.1030   56.0897 O.3   12627  HOH12627    0.0000
  12675 O          36.1030   11.6552   46.1657 O.3   12628  HOH12628    0.0000
  12676 O          74.9832   56.0897   20.4861 O.3   12629  HOH12629    0.0000
  12677 O          30.5487   10.5621    1.7312 O.3   12630  HOH12630    0.0000
  12678 O          80.5375   54.9966   64.9206 O.3   12631  HOH12631    0.0000
  12679 O          56.0897   64.9206   30.5487 O.3   12632  HOH12632    0.0000
  12680 O          11.6552    1.7312   80.5375 O.3   12633  HOH12633    0.0000
  12681 O          54.9966   20.4861   36.1030 O.3   12634  HOH12634    0.0000
  12682 O          10.5621   46.1657   74.9832 O.3   12635  HOH12635    0.0000
  12683 O          30.5487   46.1657   54.9966 O.3   12636  HOH12636    0.0000
  12684 O          80.5375   20.4861   10.5621 O.3   12637  HOH12637    0.0000
  12685 O          36.1030    1.7312   56.0897 O.3   12638  HOH12638    0.0000
  12686 O          74.9832   64.9206   11.6552 O.3   12639  HOH12639    0.0000
  12687 O          10.5621   30.5487    1.7312 O.3   12640  HOH12640    0.0000
  12688 O          54.9966   80.5375   64.9206 O.3   12641  HOH12641    0.0000
  12689 O          11.6552   36.1030   46.1657 O.3   12642  HOH12642    0.0000
  12690 O          56.0897   74.9832   20.4861 O.3   12643  HOH12643    0.0000
  12691 O          46.1657   10.5621   74.9832 O.3   12644  HOH12644    0.0000
  12692 O          20.4861   54.9966   36.1030 O.3   12645  HOH12645    0.0000
  12693 O           1.7312   11.6552   80.5375 O.3   12646  HOH12646    0.0000
  12694 O          64.9206   56.0897   30.5487 O.3   12647  HOH12647    0.0000
  12695 O          68.3829    8.3315   78.3069 O.3   12648  HOH12648    0.0000
  12696 O          42.7033   58.3203   33.8724 O.3   12649  HOH12649    0.0000
  12697 O          23.9484   13.8858   77.2138 O.3   12650  HOH12650    0.0000
  12698 O          87.1378   52.7660   32.7793 O.3   12651  HOH12651    0.0000
  12699 O          52.7660   77.2138   42.7033 O.3   12652  HOH12652    0.0000
  12700 O          13.8858   32.7793   68.3829 O.3   12653  HOH12653    0.0000
  12701 O          58.3203   78.3069   87.1378 O.3   12654  HOH12654    0.0000
  12702 O           8.3315   33.8724   23.9484 O.3   12655  HOH12655    0.0000
  12703 O          32.7793   23.9484   58.3203 O.3   12656  HOH12656    0.0000
  12704 O          77.2138   87.1378    8.3315 O.3   12657  HOH12657    0.0000
  12705 O          33.8724   68.3829   52.7660 O.3   12658  HOH12658    0.0000
  12706 O          78.3069   42.7033   13.8858 O.3   12659  HOH12659    0.0000
  12707 O          42.0626   86.4971   24.5892 O.3   12660  HOH12660    0.0000
  12708 O          86.4971   69.0237   86.4971 O.3   12661  HOH12661    0.0000
  12709 O          69.0237   42.0626   42.0626 O.3   12662  HOH12662    0.0000
  12710 O          69.0237   24.5892   24.5892 O.3   12663  HOH12663    0.0000
  12711 O          24.5892   42.0626   86.4971 O.3   12664  HOH12664    0.0000
  12712 O          86.4971   86.4971   69.0237 O.3   12665  HOH12665    0.0000
  12713 O          42.0626   69.0237   42.0626 O.3   12666  HOH12666    0.0000
  12714 O          24.5892   69.0237   24.5892 O.3   12667  HOH12667    0.0000
  12715 O          86.4971   24.5892   42.0626 O.3   12668  HOH12668    0.0000
  12716 O          69.0237   86.4971   86.4971 O.3   12669  HOH12669    0.0000
  12717 O          42.0626   42.0626   69.0237 O.3   12670  HOH12670    0.0000
  12718 O           2.3719   46.8064   64.2798 O.3   12671  HOH12671    0.0000
  12719 O          64.2798   64.2798   19.8453 O.3   12672  HOH12672    0.0000
  12720 O          46.8064   19.8453   46.8064 O.3   12673  HOH12673    0.0000
  12721 O          19.8453    2.3719    2.3719 O.3   12674  HOH12674    0.0000
  12722 O           2.3719    2.3719   19.8453 O.3   12675  HOH12675    0.0000
  12723 O          19.8453   46.8064   46.8064 O.3   12676  HOH12676    0.0000
  12724 O          64.2798   19.8453   64.2798 O.3   12677  HOH12677    0.0000
  12725 O          46.8064   64.2798    2.3719 O.3   12678  HOH12678    0.0000
  12726 O          46.8064   46.8064   19.8453 O.3   12679  HOH12679    0.0000
  12727 O           2.3719   19.8453    2.3719 O.3   12680  HOH12680    0.0000
  12728 O          64.2798    2.3719   46.8064 O.3   12681  HOH12681    0.0000
  12729 O          19.8453   64.2798   64.2798 O.3   12682  HOH12682    0.0000
  12730 O          46.8064    2.3719   64.2798 O.3   12683  HOH12683    0.0000
  12731 O          64.2798   46.8064    2.3719 O.3   12684  HOH12684    0.0000
  12732 O           2.3719   64.2798   46.8064 O.3   12685  HOH12685    0.0000
  12733 O          86.4971   42.0626   24.5892 O.3   12686  HOH12686    0.0000
  12734 O          42.0626   24.5892   86.4971 O.3   12687  HOH12687    0.0000
  12735 O          24.5892   86.4971   42.0626 O.3   12688  HOH12688    0.0000
  12736 O          69.0237   69.0237   69.0237 O.3   12689  HOH12689    0.0000
  12737 O          19.8453   19.8453   19.8453 O.3   12690  HOH12690    0.0000
  12738 O          75.2827   30.8482   35.8035 O.3   12691  HOH12691    0.0000
  12739 O          30.8482   35.8035   75.2827 O.3   12692  HOH12692    0.0000
  12740 O          35.8035   75.2827   30.8482 O.3   12693  HOH12693    0.0000
  12741 O          58.0208   13.5863   53.0655 O.3   12694  HOH12694    0.0000
  12742 O           8.6310    8.6310    8.6310 O.3   12695  HOH12695    0.0000
  12743 O          13.5863   53.0655   58.0208 O.3   12696  HOH12696    0.0000
  12744 O          53.0655   58.0208   13.5863 O.3   12697  HOH12697    0.0000
  12745 O          13.5863   58.0208   53.0655 O.3   12698  HOH12698    0.0000
  12746 O          58.0208   53.0655   13.5863 O.3   12699  HOH12699    0.0000
  12747 O          53.0655   13.5863   58.0208 O.3   12700  HOH12700    0.0000
  12748 O          30.8482   75.2827   35.8035 O.3   12701  HOH12701    0.0000
  12749 O          75.2827   35.8035   30.8482 O.3   12702  HOH12702    0.0000
  12750 O          35.8035   30.8482   75.2827 O.3   12703  HOH12703    0.0000
  12751 O          80.2380   35.8035   35.8035 O.3   12704  HOH12704    0.0000
  12752 O          75.2827   75.2827   80.2380 O.3   12705  HOH12705    0.0000
  12753 O          30.8482   80.2380   30.8482 O.3   12706  HOH12706    0.0000
  12754 O          58.0208   58.0208    8.6310 O.3   12707  HOH12707    0.0000
  12755 O           8.6310   53.0655   53.0655 O.3   12708  HOH12708    0.0000
  12756 O          13.5863    8.6310   13.5863 O.3   12709  HOH12709    0.0000
  12757 O          13.5863   13.5863    8.6310 O.3   12710  HOH12710    0.0000
  12758 O          58.0208    8.6310   58.0208 O.3   12711  HOH12711    0.0000
  12759 O          30.8482   30.8482   80.2380 O.3   12712  HOH12712    0.0000
  12760 O          75.2827   80.2380   75.2827 O.3   12713  HOH12713    0.0000
  12761 O          35.8035   80.2380   35.8035 O.3   12714  HOH12714    0.0000
  12762 O          80.2380   75.2827   75.2827 O.3   12715  HOH12715    0.0000
  12763 O          53.0655    8.6310   53.0655 O.3   12716  HOH12716    0.0000
  12764 O           8.6310   58.0208   58.0208 O.3   12717  HOH12717    0.0000
  12765 O           8.6310   13.5863   13.5863 O.3   12718  HOH12718    0.0000
  12766 O          80.2380   30.8482   30.8482 O.3   12719  HOH12719    0.0000
  12767 O          35.8035   35.8035   80.2380 O.3   12720  HOH12720    0.0000
  12768 O          53.0655   53.0655    8.6310 O.3   12721  HOH12721    0.0000
  12769 O          70.6757   33.5996   26.2412 O.3   12722  HOH12722    0.0000
  12770 O          26.2412   33.0522   84.8450 O.3   12723  HOH12723    0.0000
  12771 O          40.4105   78.0341   40.4105 O.3   12724  HOH12724    0.0000
  12772 O          70.6757   84.8450   77.4866 O.3   12725  HOH12725    0.0000
  12773 O          26.2412   70.6757   33.5996 O.3   12726  HOH12726    0.0000
  12774 O          84.8450   26.2412   33.0522 O.3   12727  HOH12727    0.0000
  12775 O          40.4105   40.4105   78.0341 O.3   12728  HOH12728    0.0000
  12776 O          77.4866   70.6757   84.8450 O.3   12729  HOH12729    0.0000
  12777 O          33.5996   26.2412   70.6757 O.3   12730  HOH12730    0.0000
  12778 O          33.0522   84.8450   26.2412 O.3   12731  HOH12731    0.0000
  12779 O          78.0341   40.4105   40.4105 O.3   12732  HOH12732    0.0000
  12780 O          55.2694   18.1933   62.6278 O.3   12733  HOH12733    0.0000
  12781 O          11.3823    4.0240   18.1933 O.3   12734  HOH12734    0.0000
  12782 O          10.8349   48.4585   48.4585 O.3   12735  HOH12735    0.0000
  12783 O          55.8168   62.6278    4.0240 O.3   12736  HOH12736    0.0000
  12784 O          62.6278    4.0240   55.8168 O.3   12737  HOH12737    0.0000
  12785 O          48.4585   48.4585   10.8349 O.3   12738  HOH12738    0.0000
  12786 O           4.0240   18.1933   11.3823 O.3   12739  HOH12739    0.0000
  12787 O          18.1933   62.6278   55.2694 O.3   12740  HOH12740    0.0000
  12788 O          48.4585   10.8349   48.4585 O.3   12741  HOH12741    0.0000
  12789 O           4.0240   55.8168   62.6278 O.3   12742  HOH12742    0.0000
  12790 O          62.6278   55.2694   18.1933 O.3   12743  HOH12743    0.0000
  12791 O          18.1933   11.3823    4.0240 O.3   12744  HOH12744    0.0000
  12792 O           4.0240   11.3823   18.1933 O.3   12745  HOH12745    0.0000
  12793 O          18.1933   55.2694   62.6278 O.3   12746  HOH12746    0.0000
  12794 O          62.6278   55.8168    4.0240 O.3   12747  HOH12747    0.0000
  12795 O          18.1933    4.0240   11.3823 O.3   12748  HOH12748    0.0000
  12796 O          62.6278   18.1933   55.2694 O.3   12749  HOH12749    0.0000
  12797 O           4.0240   62.6278   55.8168 O.3   12750  HOH12750    0.0000
  12798 O          11.3823   18.1933    4.0240 O.3   12751  HOH12751    0.0000
  12799 O          55.2694   62.6278   18.1933 O.3   12752  HOH12752    0.0000
  12800 O          55.8168    4.0240   62.6278 O.3   12753  HOH12753    0.0000
  12801 O          33.5996   70.6757   26.2412 O.3   12754  HOH12754    0.0000
  12802 O          77.4866   84.8450   70.6757 O.3   12755  HOH12755    0.0000
  12803 O          33.0522   26.2412   84.8450 O.3   12756  HOH12756    0.0000
  12804 O          26.2412   84.8450   33.0522 O.3   12757  HOH12757    0.0000
  12805 O          84.8450   70.6757   77.4866 O.3   12758  HOH12758    0.0000
  12806 O          70.6757   26.2412   33.5996 O.3   12759  HOH12759    0.0000
  12807 O          84.8450   33.0522   26.2412 O.3   12760  HOH12760    0.0000
  12808 O          26.2412   33.5996   70.6757 O.3   12761  HOH12761    0.0000
  12809 O          70.6757   77.4866   84.8450 O.3   12762  HOH12762    0.0000
  12810 O          70.6757   78.0341   70.6757 O.3   12763  HOH12763    0.0000
  12811 O          26.2412   77.4866   40.4105 O.3   12764  HOH12764    0.0000
  12812 O          40.4105   33.5996   84.8450 O.3   12765  HOH12765    0.0000
  12813 O          70.6757   40.4105   33.0522 O.3   12766  HOH12766    0.0000
  12814 O          26.2412   26.2412   78.0341 O.3   12767  HOH12767    0.0000
  12815 O          40.4105   84.8450   33.5996 O.3   12768  HOH12768    0.0000
  12816 O          77.4866   26.2412   40.4105 O.3   12769  HOH12769    0.0000
  12817 O          33.0522   40.4105   70.6757 O.3   12770  HOH12770    0.0000
  12818 O          78.0341   84.8450   84.8450 O.3   12771  HOH12771    0.0000
  12819 O          11.3823   48.4585   62.6278 O.3   12772  HOH12772    0.0000
  12820 O          10.8349    4.0240    4.0240 O.3   12773  HOH12773    0.0000
  12821 O          55.8168   18.1933   48.4585 O.3   12774  HOH12774    0.0000
  12822 O          62.6278   48.4585   11.3823 O.3   12775  HOH12775    0.0000
  12823 O          48.4585    4.0240   55.2694 O.3   12776  HOH12776    0.0000
  12824 O          18.1933   18.1933   10.8349 O.3   12777  HOH12777    0.0000
  12825 O          48.4585   55.2694    4.0240 O.3   12778  HOH12778    0.0000
  12826 O          62.6278   10.8349   62.6278 O.3   12779  HOH12779    0.0000
  12827 O          18.1933   55.8168   48.4585 O.3   12780  HOH12780    0.0000
  12828 O          18.1933   10.8349   18.1933 O.3   12781  HOH12781    0.0000
  12829 O          62.6278   11.3823   48.4585 O.3   12782  HOH12782    0.0000
  12830 O          18.1933   48.4585   55.8168 O.3   12783  HOH12783    0.0000
  12831 O          62.6278   62.6278   10.8349 O.3   12784  HOH12784    0.0000
  12832 O          11.3823   62.6278   48.4585 O.3   12785  HOH12785    0.0000
  12833 O          55.8168   48.4585   18.1933 O.3   12786  HOH12786    0.0000
  12834 O          77.4866   40.4105   26.2412 O.3   12787  HOH12787    0.0000
  12835 O          33.0522   70.6757   40.4105 O.3   12788  HOH12788    0.0000
  12836 O          26.2412   40.4105   77.4866 O.3   12789  HOH12789    0.0000
  12837 O          70.6757   70.6757   78.0341 O.3   12790  HOH12790    0.0000
  12838 O          26.2412   78.0341   26.2412 O.3   12791  HOH12791    0.0000
  12839 O          70.6757   33.0522   40.4105 O.3   12792  HOH12792    0.0000
  12840 O          40.4105   77.4866   26.2412 O.3   12793  HOH12793    0.0000
  12841 O          84.8450   78.0341   84.8450 O.3   12794  HOH12794    0.0000
  12842 O          40.4105   26.2412   77.4866 O.3   12795  HOH12795    0.0000
  12843 O          84.8450   40.4105   33.5996 O.3   12796  HOH12796    0.0000
  12844 O          78.0341   26.2412   26.2412 O.3   12797  HOH12797    0.0000
  12845 O          33.5996   40.4105   84.8450 O.3   12798  HOH12798    0.0000
  12846 O          10.8349   18.1933   18.1933 O.3   12799  HOH12799    0.0000
  12847 O          55.2694   48.4585    4.0240 O.3   12800  HOH12800    0.0000
  12848 O           4.0240   48.4585   55.2694 O.3   12801  HOH12801    0.0000
  12849 O          48.4585   18.1933   55.8168 O.3   12802  HOH12802    0.0000
  12850 O           4.0240   10.8349    4.0240 O.3   12803  HOH12803    0.0000
  12851 O          48.4585   55.8168   18.1933 O.3   12804  HOH12804    0.0000
  12852 O          48.4585   11.3823   62.6278 O.3   12805  HOH12805    0.0000
  12853 O          48.4585   62.6278   11.3823 O.3   12806  HOH12806    0.0000
  12854 O          10.8349   62.6278   62.6278 O.3   12807  HOH12807    0.0000
  12855 O          78.0341   70.6757   70.6757 O.3   12808  HOH12808    0.0000
  12856 O          40.4105   70.6757   33.0522 O.3   12809  HOH12809    0.0000
  12857 O          40.4105   33.0522   70.6757 O.3   12810  HOH12810    0.0000
  12858 O          84.8450   33.5996   40.4105 O.3   12811  HOH12811    0.0000
  12859 O          84.8450   84.8450   78.0341 O.3   12812  HOH12812    0.0000
  12860 O          33.5996   84.8450   40.4105 O.3   12813  HOH12813    0.0000
  12861 O          55.2694    4.0240   48.4585 O.3   12814  HOH12814    0.0000
  12862 O           4.0240    4.0240   10.8349 O.3   12815  HOH12815    0.0000
  12863 O           4.0240   55.2694   48.4585 O.3   12816  HOH12816    0.0000
  12864 O          52.5020   79.1130   38.6758 O.3   12817  HOH12817    0.0000
  12865 O           8.0675   76.4078   72.4105 O.3   12818  HOH12818    0.0000
  12866 O          58.5842   34.6785   27.9760 O.3   12819  HOH12819    0.0000
  12867 O          83.1103   14.1497   31.9733 O.3   12820  HOH12820    0.0000
  12868 O          38.6758   52.5020   79.1130 O.3   12821  HOH12821    0.0000
  12869 O          72.4105    8.0675   76.4078 O.3   12822  HOH12822    0.0000
  12870 O          27.9760   58.5842   34.6785 O.3   12823  HOH12823    0.0000
  12871 O          31.9733   83.1103   14.1497 O.3   12824  HOH12824    0.0000
  12872 O          79.1130   38.6758   52.5020 O.3   12825  HOH12825    0.0000
  12873 O          76.4078   72.4105    8.0675 O.3   12826  HOH12826    0.0000
  12874 O          34.6785   27.9760   58.5842 O.3   12827  HOH12827    0.0000
  12875 O           9.7560   36.3670   50.1932 O.3   12828  HOH12828    0.0000
  12876 O          56.8957   74.7193    5.7587 O.3   12829  HOH12829    0.0000
  12877 O          54.1905   30.2848   60.8930 O.3   12830  HOH12830    0.0000
  12878 O          12.4612   80.8015   16.4585 O.3   12831  HOH12831    0.0000
  12879 O          80.8015   16.4585   12.4612 O.3   12832  HOH12832    0.0000
  12880 O          30.2848   60.8930   54.1905 O.3   12833  HOH12833    0.0000
  12881 O          74.7193    5.7587   56.8957 O.3   12834  HOH12834    0.0000
  12882 O          36.3670   50.1932    9.7560 O.3   12835  HOH12835    0.0000
  12883 O          60.8930   54.1905   30.2848 O.3   12836  HOH12836    0.0000
  12884 O          16.4585   12.4612   80.8015 O.3   12837  HOH12837    0.0000
  12885 O          50.1932    9.7560   36.3670 O.3   12838  HOH12838    0.0000
  12886 O           5.7587   56.8957   74.7193 O.3   12839  HOH12839    0.0000
  12887 O          74.7193   56.8957    5.7587 O.3   12840  HOH12840    0.0000
  12888 O          36.3670    9.7560   50.1932 O.3   12841  HOH12841    0.0000
  12889 O          80.8015   12.4612   16.4585 O.3   12842  HOH12842    0.0000
  12890 O          30.2848   54.1905   60.8930 O.3   12843  HOH12843    0.0000
  12891 O           5.7587   74.7193   56.8957 O.3   12844  HOH12844    0.0000
  12892 O          50.1932   36.3670    9.7560 O.3   12845  HOH12845    0.0000
  12893 O          16.4585   80.8015   12.4612 O.3   12846  HOH12846    0.0000
  12894 O          60.8930   30.2848   54.1905 O.3   12847  HOH12847    0.0000
  12895 O          56.8957    5.7587   74.7193 O.3   12848  HOH12848    0.0000
  12896 O           9.7560   50.1932   36.3670 O.3   12849  HOH12849    0.0000
  12897 O          12.4612   16.4585   80.8015 O.3   12850  HOH12850    0.0000
  12898 O          54.1905   60.8930   30.2848 O.3   12851  HOH12851    0.0000
  12899 O          79.1130   52.5020   38.6758 O.3   12852  HOH12852    0.0000
  12900 O          31.9733   14.1497   83.1103 O.3   12853  HOH12853    0.0000
  12901 O          34.6785   58.5842   27.9760 O.3   12854  HOH12854    0.0000
  12902 O          76.4078    8.0675   72.4105 O.3   12855  HOH12855    0.0000
  12903 O           8.0675   72.4105   76.4078 O.3   12856  HOH12856    0.0000
  12904 O          58.5842   27.9760   34.6785 O.3   12857  HOH12857    0.0000
  12905 O          14.1497   83.1103   31.9733 O.3   12858  HOH12858    0.0000
  12906 O          52.5020   38.6758   79.1130 O.3   12859  HOH12859    0.0000
  12907 O          27.9760   34.6785   58.5842 O.3   12860  HOH12860    0.0000
  12908 O          72.4105   76.4078    8.0675 O.3   12861  HOH12861    0.0000
  12909 O          38.6758   79.1130   52.5020 O.3   12862  HOH12862    0.0000
  12910 O          83.1103   31.9733   14.1497 O.3   12863  HOH12863    0.0000
  12911 O          14.1497   76.4078   38.6758 O.3   12864  HOH12864    0.0000
  12912 O          52.5020   34.6785   83.1103 O.3   12865  HOH12865    0.0000
  12913 O           8.0675   31.9733   27.9760 O.3   12866  HOH12866    0.0000
  12914 O          58.5842   79.1130   72.4105 O.3   12867  HOH12867    0.0000
  12915 O          83.1103   58.5842   76.4078 O.3   12868  HOH12868    0.0000
  12916 O          38.6758    8.0675   34.6785 O.3   12869  HOH12869    0.0000
  12917 O          72.4105   52.5020   31.9733 O.3   12870  HOH12870    0.0000
  12918 O          27.9760   14.1497   79.1130 O.3   12871  HOH12871    0.0000
  12919 O          31.9733   38.6758   58.5842 O.3   12872  HOH12872    0.0000
  12920 O          79.1130   83.1103    8.0675 O.3   12873  HOH12873    0.0000
  12921 O          76.4078   27.9760   52.5020 O.3   12874  HOH12874    0.0000
  12922 O          34.6785   72.4105   14.1497 O.3   12875  HOH12875    0.0000
  12923 O           9.7560   80.8015    5.7587 O.3   12876  HOH12876    0.0000
  12924 O          56.8957   30.2848   50.1932 O.3   12877  HOH12877    0.0000
  12925 O          54.1905   74.7193   16.4585 O.3   12878  HOH12878    0.0000
  12926 O          12.4612   36.3670   60.8930 O.3   12879  HOH12879    0.0000
  12927 O          80.8015   60.8930   56.8957 O.3   12880  HOH12880    0.0000
  12928 O          30.2848   16.4585    9.7560 O.3   12881  HOH12881    0.0000
  12929 O          74.7193   50.1932   12.4612 O.3   12882  HOH12882    0.0000
  12930 O          36.3670    5.7587   54.1905 O.3   12883  HOH12883    0.0000
  12931 O          60.8930    9.7560   74.7193 O.3   12884  HOH12884    0.0000
  12932 O          16.4585   56.8957   36.3670 O.3   12885  HOH12885    0.0000
  12933 O          50.1932   54.1905   80.8015 O.3   12886  HOH12886    0.0000
  12934 O           5.7587   12.4612   30.2848 O.3   12887  HOH12887    0.0000
  12935 O          74.7193   12.4612   50.1932 O.3   12888  HOH12888    0.0000
  12936 O          36.3670   54.1905    5.7587 O.3   12889  HOH12889    0.0000
  12937 O          80.8015   56.8957   60.8930 O.3   12890  HOH12890    0.0000
  12938 O          30.2848    9.7560   16.4585 O.3   12891  HOH12891    0.0000
  12939 O           5.7587   30.2848   12.4612 O.3   12892  HOH12892    0.0000
  12940 O          50.1932   80.8015   54.1905 O.3   12893  HOH12893    0.0000
  12941 O          16.4585   36.3670   56.8957 O.3   12894  HOH12894    0.0000
  12942 O          60.8930   74.7193    9.7560 O.3   12895  HOH12895    0.0000
  12943 O          56.8957   50.1932   30.2848 O.3   12896  HOH12896    0.0000
  12944 O           9.7560    5.7587   80.8015 O.3   12897  HOH12897    0.0000
  12945 O          12.4612   60.8930   36.3670 O.3   12898  HOH12898    0.0000
  12946 O          54.1905   16.4585   74.7193 O.3   12899  HOH12899    0.0000
  12947 O          79.1130    8.0675   83.1103 O.3   12900  HOH12900    0.0000
  12948 O          31.9733   58.5842   38.6758 O.3   12901  HOH12901    0.0000
  12949 O          34.6785   14.1497   72.4105 O.3   12902  HOH12902    0.0000
  12950 O          76.4078   52.5020   27.9760 O.3   12903  HOH12903    0.0000
  12951 O           8.0675   27.9760   31.9733 O.3   12904  HOH12904    0.0000
  12952 O          58.5842   72.4105   79.1130 O.3   12905  HOH12905    0.0000
  12953 O          14.1497   38.6758   76.4078 O.3   12906  HOH12906    0.0000
  12954 O          52.5020   83.1103   34.6785 O.3   12907  HOH12907    0.0000
  12955 O          27.9760   79.1130   14.1497 O.3   12908  HOH12908    0.0000
  12956 O          72.4105   31.9733   52.5020 O.3   12909  HOH12909    0.0000
  12957 O          38.6758   34.6785    8.0675 O.3   12910  HOH12910    0.0000
  12958 O          83.1103   76.4078   58.5842 O.3   12911  HOH12911    0.0000
  12959 O          58.5842   31.9733   38.6758 O.3   12912  HOH12912    0.0000
  12960 O           8.0675   79.1130   83.1103 O.3   12913  HOH12913    0.0000
  12961 O          52.5020   76.4078   27.9760 O.3   12914  HOH12914    0.0000
  12962 O          14.1497   34.6785   72.4105 O.3   12915  HOH12915    0.0000
  12963 O          38.6758   14.1497   76.4078 O.3   12916  HOH12916    0.0000
  12964 O          83.1103   52.5020   34.6785 O.3   12917  HOH12917    0.0000
  12965 O          27.9760    8.0675   31.9733 O.3   12918  HOH12918    0.0000
  12966 O          72.4105   58.5842   79.1130 O.3   12919  HOH12919    0.0000
  12967 O          76.4078   83.1103   58.5842 O.3   12920  HOH12920    0.0000
  12968 O          34.6785   38.6758    8.0675 O.3   12921  HOH12921    0.0000
  12969 O          31.9733   72.4105   52.5020 O.3   12922  HOH12922    0.0000
  12970 O          79.1130   27.9760   14.1497 O.3   12923  HOH12923    0.0000
  12971 O          54.1905   36.3670    5.7587 O.3   12924  HOH12924    0.0000
  12972 O          12.4612   74.7193   50.1932 O.3   12925  HOH12925    0.0000
  12973 O           9.7560   30.2848   16.4585 O.3   12926  HOH12926    0.0000
  12974 O          56.8957   80.8015   60.8930 O.3   12927  HOH12927    0.0000
  12975 O          36.3670   16.4585   56.8957 O.3   12928  HOH12928    0.0000
  12976 O          74.7193   60.8930    9.7560 O.3   12929  HOH12929    0.0000
  12977 O          30.2848    5.7587   12.4612 O.3   12930  HOH12930    0.0000
  12978 O          80.8015   50.1932   54.1905 O.3   12931  HOH12931    0.0000
  12979 O          16.4585   54.1905   74.7193 O.3   12932  HOH12932    0.0000
  12980 O          60.8930   12.4612   36.3670 O.3   12933  HOH12933    0.0000
  12981 O           5.7587    9.7560   80.8015 O.3   12934  HOH12934    0.0000
  12982 O          50.1932   56.8957   30.2848 O.3   12935  HOH12935    0.0000
  12983 O          30.2848   56.8957   50.1932 O.3   12936  HOH12936    0.0000
  12984 O          80.8015    9.7560    5.7587 O.3   12937  HOH12937    0.0000
  12985 O          36.3670   12.4612   60.8930 O.3   12938  HOH12938    0.0000
  12986 O          74.7193   54.1905   16.4585 O.3   12939  HOH12939    0.0000
  12987 O          50.1932   74.7193   12.4612 O.3   12940  HOH12940    0.0000
  12988 O           5.7587   36.3670   54.1905 O.3   12941  HOH12941    0.0000
  12989 O          60.8930   80.8015   56.8957 O.3   12942  HOH12942    0.0000
  12990 O          16.4585   30.2848    9.7560 O.3   12943  HOH12943    0.0000
  12991 O          12.4612    5.7587   30.2848 O.3   12944  HOH12944    0.0000
  12992 O          54.1905   50.1932   80.8015 O.3   12945  HOH12945    0.0000
  12993 O          56.8957   16.4585   36.3670 O.3   12946  HOH12946    0.0000
  12994 O           9.7560   60.8930   74.7193 O.3   12947  HOH12947    0.0000
  12995 O          34.6785   52.5020   83.1103 O.3   12948  HOH12948    0.0000
  12996 O          76.4078   14.1497   38.6758 O.3   12949  HOH12949    0.0000
  12997 O          79.1130   58.5842   72.4105 O.3   12950  HOH12950    0.0000
  12998 O          31.9733    8.0675   27.9760 O.3   12951  HOH12951    0.0000
  12999 O          52.5020   72.4105   31.9733 O.3   12952  HOH12952    0.0000
  13000 O          14.1497   27.9760   79.1130 O.3   12953  HOH12953    0.0000
  13001 O          58.5842   83.1103   76.4078 O.3   12954  HOH12954    0.0000
  13002 O           8.0675   38.6758   34.6785 O.3   12955  HOH12955    0.0000
  13003 O          72.4105   34.6785   14.1497 O.3   12956  HOH12956    0.0000
  13004 O          27.9760   76.4078   52.5020 O.3   12957  HOH12957    0.0000
  13005 O          83.1103   79.1130    8.0675 O.3   12958  HOH12958    0.0000
  13006 O          38.6758   31.9733   58.5842 O.3   12959  HOH12959    0.0000
  13007 O          58.5842   76.4078   83.1103 O.3   12960  HOH12960    0.0000
  13008 O           8.0675   34.6785   38.6758 O.3   12961  HOH12961    0.0000
  13009 O          52.5020   31.9733   72.4105 O.3   12962  HOH12962    0.0000
  13010 O          14.1497   79.1130   27.9760 O.3   12963  HOH12963    0.0000
  13011 O          38.6758   58.5842   31.9733 O.3   12964  HOH12964    0.0000
  13012 O          83.1103    8.0675   79.1130 O.3   12965  HOH12965    0.0000
  13013 O          27.9760   52.5020   76.4078 O.3   12966  HOH12966    0.0000
  13014 O          72.4105   14.1497   34.6785 O.3   12967  HOH12967    0.0000
  13015 O          76.4078   38.6758   14.1497 O.3   12968  HOH12968    0.0000
  13016 O          34.6785   83.1103   52.5020 O.3   12969  HOH12969    0.0000
  13017 O          31.9733   27.9760    8.0675 O.3   12970  HOH12970    0.0000
  13018 O          79.1130   72.4105   58.5842 O.3   12971  HOH12971    0.0000
  13019 O          54.1905   80.8015   50.1932 O.3   12972  HOH12972    0.0000
  13020 O          12.4612   30.2848    5.7587 O.3   12973  HOH12973    0.0000
  13021 O           9.7560   74.7193   60.8930 O.3   12974  HOH12974    0.0000
  13022 O          56.8957   36.3670   16.4585 O.3   12975  HOH12975    0.0000
  13023 O          36.3670   60.8930   12.4612 O.3   12976  HOH12976    0.0000
  13024 O          74.7193   16.4585   54.1905 O.3   12977  HOH12977    0.0000
  13025 O          30.2848   50.1932   56.8957 O.3   12978  HOH12978    0.0000
  13026 O          80.8015    5.7587    9.7560 O.3   12979  HOH12979    0.0000
  13027 O          16.4585    9.7560   30.2848 O.3   12980  HOH12980    0.0000
  13028 O          60.8930   56.8957   80.8015 O.3   12981  HOH12981    0.0000
  13029 O           5.7587   54.1905   36.3670 O.3   12982  HOH12982    0.0000
  13030 O          50.1932   12.4612   74.7193 O.3   12983  HOH12983    0.0000
  13031 O          30.2848   12.4612    5.7587 O.3   12984  HOH12984    0.0000
  13032 O          80.8015   54.1905   50.1932 O.3   12985  HOH12985    0.0000
  13033 O          36.3670   56.8957   16.4585 O.3   12986  HOH12986    0.0000
  13034 O          74.7193    9.7560   60.8930 O.3   12987  HOH12987    0.0000
  13035 O          50.1932   30.2848   56.8957 O.3   12988  HOH12988    0.0000
  13036 O           5.7587   80.8015    9.7560 O.3   12989  HOH12989    0.0000
  13037 O          60.8930   36.3670   12.4612 O.3   12990  HOH12990    0.0000
  13038 O          16.4585   74.7193   54.1905 O.3   12991  HOH12991    0.0000
  13039 O          12.4612   50.1932   74.7193 O.3   12992  HOH12992    0.0000
  13040 O          54.1905    5.7587   36.3670 O.3   12993  HOH12993    0.0000
  13041 O          56.8957   60.8930   80.8015 O.3   12994  HOH12994    0.0000
  13042 O           9.7560   16.4585   30.2848 O.3   12995  HOH12995    0.0000
  13043 O          34.6785    8.0675   38.6758 O.3   12996  HOH12996    0.0000
  13044 O          76.4078   58.5842   83.1103 O.3   12997  HOH12997    0.0000
  13045 O          79.1130   14.1497   27.9760 O.3   12998  HOH12998    0.0000
  13046 O          31.9733   52.5020   72.4105 O.3   12999  HOH12999    0.0000
  13047 O          52.5020   27.9760   76.4078 O.3   13000  HOH13000    0.0000
  13048 O          14.1497   72.4105   34.6785 O.3   13001  HOH13001    0.0000
  13049 O          58.5842   38.6758   31.9733 O.3   13002  HOH13002    0.0000
  13050 O           8.0675   83.1103   79.1130 O.3   13003  HOH13003    0.0000
  13051 O          72.4105   79.1130   58.5842 O.3   13004  HOH13004    0.0000
  13052 O          27.9760   31.9733    8.0675 O.3   13005  HOH13005    0.0000
  13053 O          83.1103   34.6785   52.5020 O.3   13006  HOH13006    0.0000
  13054 O          38.6758   76.4078   14.1497 O.3   13007  HOH13007    0.0000
  13055 O          50.2190   19.8951   86.7130 O.3   13008  HOH13008    0.0000
  13056 O           5.7845   46.7566   24.3732 O.3   13009  HOH13009    0.0000
  13057 O          60.8673   64.3296   68.8077 O.3   13010  HOH13010    0.0000
  13058 O          42.2785   16.4328    2.3221 O.3   13011  HOH13011    0.0000
  13059 O          86.7130   50.2190   19.8951 O.3   13012  HOH13012    0.0000
  13060 O          24.3732    5.7845   46.7566 O.3   13013  HOH13013    0.0000
  13061 O          68.8077   60.8673   64.3296 O.3   13014  HOH13014    0.0000
  13062 O           2.3221   42.2785   16.4328 O.3   13015  HOH13015    0.0000
  13063 O          19.8951   86.7130   50.2190 O.3   13016  HOH13016    0.0000
  13064 O          46.7566   24.3732    5.7845 O.3   13017  HOH13017    0.0000
  13065 O          64.3296   68.8077   60.8673 O.3   13018  HOH13018    0.0000
  13066 O          68.9739   38.6500    2.1560 O.3   13019  HOH13019    0.0000
  13067 O          86.5468   72.4362   46.5905 O.3   13020  HOH13020    0.0000
  13068 O          24.5394   28.0017   20.0613 O.3   13021  HOH13021    0.0000
  13069 O          42.1123   83.0845   64.4958 O.3   13022  HOH13022    0.0000
  13070 O          83.0845   64.4958   42.1123 O.3   13023  HOH13023    0.0000
  13071 O          28.0017   20.0613   24.5394 O.3   13024  HOH13024    0.0000
  13072 O          72.4362   46.5905   86.5468 O.3   13025  HOH13025    0.0000
  13073 O          38.6500    2.1560   68.9739 O.3   13026  HOH13026    0.0000
  13074 O          20.0613   24.5394   28.0017 O.3   13027  HOH13027    0.0000
  13075 O          64.4958   42.1123   83.0845 O.3   13028  HOH13028    0.0000
  13076 O           2.1560   68.9739   38.6500 O.3   13029  HOH13029    0.0000
  13077 O          46.5905   86.5468   72.4362 O.3   13030  HOH13030    0.0000
  13078 O          72.4362   86.5468   46.5905 O.3   13031  HOH13031    0.0000
  13079 O          38.6500   68.9739    2.1560 O.3   13032  HOH13032    0.0000
  13080 O          83.0845   42.1123   64.4958 O.3   13033  HOH13033    0.0000
  13081 O          28.0017   24.5394   20.0613 O.3   13034  HOH13034    0.0000
  13082 O          46.5905   72.4362   86.5468 O.3   13035  HOH13035    0.0000
  13083 O           2.1560   38.6500   68.9739 O.3   13036  HOH13036    0.0000
  13084 O          64.4958   83.0845   42.1123 O.3   13037  HOH13037    0.0000
  13085 O          20.0613   28.0017   24.5394 O.3   13038  HOH13038    0.0000
  13086 O          86.5468   46.5905   72.4362 O.3   13039  HOH13039    0.0000
  13087 O          68.9739    2.1560   38.6500 O.3   13040  HOH13040    0.0000
  13088 O          42.1123   64.4958   83.0845 O.3   13041  HOH13041    0.0000
  13089 O          24.5394   20.0613   28.0017 O.3   13042  HOH13042    0.0000
  13090 O          19.8951   50.2190   86.7130 O.3   13043  HOH13043    0.0000
  13091 O           2.3221   16.4328   42.2785 O.3   13044  HOH13044    0.0000
  13092 O          64.3296   60.8673   68.8077 O.3   13045  HOH13045    0.0000
  13093 O          46.7566    5.7845   24.3732 O.3   13046  HOH13046    0.0000
  13094 O           5.7845   24.3732   46.7566 O.3   13047  HOH13047    0.0000
  13095 O          60.8673   68.8077   64.3296 O.3   13048  HOH13048    0.0000
  13096 O          16.4328   42.2785    2.3221 O.3   13049  HOH13049    0.0000
  13097 O          50.2190   86.7130   19.8951 O.3   13050  HOH13050    0.0000
  13098 O          68.8077   64.3296   60.8673 O.3   13051  HOH13051    0.0000
  13099 O          24.3732   46.7566    5.7845 O.3   13052  HOH13052    0.0000
  13100 O          86.7130   19.8951   50.2190 O.3   13053  HOH13053    0.0000
  13101 O          42.2785    2.3221   16.4328 O.3   13054  HOH13054    0.0000
  13102 O          16.4328   46.7566   86.7130 O.3   13055  HOH13055    0.0000
  13103 O          50.2190   64.3296   42.2785 O.3   13056  HOH13056    0.0000
  13104 O           5.7845    2.3221   68.8077 O.3   13057  HOH13057    0.0000
  13105 O          60.8673   19.8951   24.3732 O.3   13058  HOH13058    0.0000
  13106 O          42.2785   60.8673   46.7566 O.3   13059  HOH13059    0.0000
  13107 O          86.7130    5.7845   64.3296 O.3   13060  HOH13060    0.0000
  13108 O          24.3732   50.2190    2.3221 O.3   13061  HOH13061    0.0000
  13109 O          68.8077   16.4328   19.8951 O.3   13062  HOH13062    0.0000
  13110 O           2.3221   86.7130   60.8673 O.3   13063  HOH13063    0.0000
  13111 O          19.8951   42.2785    5.7845 O.3   13064  HOH13064    0.0000
  13112 O          46.7566   68.8077   50.2190 O.3   13065  HOH13065    0.0000
  13113 O          64.3296   24.3732   16.4328 O.3   13066  HOH13066    0.0000
  13114 O          68.9739   83.0845   46.5905 O.3   13067  HOH13067    0.0000
  13115 O          86.5468   28.0017    2.1560 O.3   13068  HOH13068    0.0000
  13116 O          24.5394   72.4362   64.4958 O.3   13069  HOH13069    0.0000
  13117 O          42.1123   38.6500   20.0613 O.3   13070  HOH13070    0.0000
  13118 O          83.0845   20.0613   86.5468 O.3   13071  HOH13071    0.0000
  13119 O          28.0017   64.4958   68.9739 O.3   13072  HOH13072    0.0000
  13120 O          72.4362    2.1560   42.1123 O.3   13073  HOH13073    0.0000
  13121 O          38.6500   46.5905   24.5394 O.3   13074  HOH13074    0.0000
  13122 O          20.0613   68.9739   72.4362 O.3   13075  HOH13075    0.0000
  13123 O          64.4958   86.5468   38.6500 O.3   13076  HOH13076    0.0000
  13124 O           2.1560   24.5394   83.0845 O.3   13077  HOH13077    0.0000
  13125 O          46.5905   42.1123   28.0017 O.3   13078  HOH13078    0.0000
  13126 O          72.4362   42.1123    2.1560 O.3   13079  HOH13079    0.0000
  13127 O          38.6500   24.5394   46.5905 O.3   13080  HOH13080    0.0000
  13128 O          83.0845   86.5468   20.0613 O.3   13081  HOH13081    0.0000
  13129 O          28.0017   68.9739   64.4958 O.3   13082  HOH13082    0.0000
  13130 O          46.5905   28.0017   42.1123 O.3   13083  HOH13083    0.0000
  13131 O           2.1560   83.0845   24.5394 O.3   13084  HOH13084    0.0000
  13132 O          64.4958   38.6500   86.5468 O.3   13085  HOH13085    0.0000
  13133 O          20.0613   72.4362   68.9739 O.3   13086  HOH13086    0.0000
  13134 O          86.5468    2.1560   28.0017 O.3   13087  HOH13087    0.0000
  13135 O          68.9739   46.5905   83.0845 O.3   13088  HOH13088    0.0000
  13136 O          42.1123   20.0613   38.6500 O.3   13089  HOH13089    0.0000
  13137 O          24.5394   64.4958   72.4362 O.3   13090  HOH13090    0.0000
  13138 O          19.8951    5.7845   42.2785 O.3   13091  HOH13091    0.0000
  13139 O           2.3221   60.8673   86.7130 O.3   13092  HOH13092    0.0000
  13140 O          64.3296   16.4328   24.3732 O.3   13093  HOH13093    0.0000
  13141 O          46.7566   50.2190   68.8077 O.3   13094  HOH13094    0.0000
  13142 O           5.7845   68.8077    2.3221 O.3   13095  HOH13095    0.0000
  13143 O          60.8673   24.3732   19.8951 O.3   13096  HOH13096    0.0000
  13144 O          16.4328   86.7130   46.7566 O.3   13097  HOH13097    0.0000
  13145 O          50.2190   42.2785   64.3296 O.3   13098  HOH13098    0.0000
  13146 O          68.8077   19.8951   16.4328 O.3   13099  HOH13099    0.0000
  13147 O          24.3732    2.3221   50.2190 O.3   13100  HOH13100    0.0000
  13148 O          86.7130   64.3296    5.7845 O.3   13101  HOH13101    0.0000
  13149 O          42.2785   46.7566   60.8673 O.3   13102  HOH13102    0.0000
  13150 O          60.8673    2.3221   86.7130 O.3   13103  HOH13103    0.0000
  13151 O           5.7845   19.8951   42.2785 O.3   13104  HOH13104    0.0000
  13152 O          50.2190   46.7566   68.8077 O.3   13105  HOH13105    0.0000
  13153 O          16.4328   64.3296   24.3732 O.3   13106  HOH13106    0.0000
  13154 O          86.7130   16.4328   46.7566 O.3   13107  HOH13107    0.0000
  13155 O          42.2785   50.2190   64.3296 O.3   13108  HOH13108    0.0000
  13156 O          68.8077    5.7845    2.3221 O.3   13109  HOH13109    0.0000
  13157 O          24.3732   60.8673   19.8951 O.3   13110  HOH13110    0.0000
  13158 O          46.7566   42.2785   60.8673 O.3   13111  HOH13111    0.0000
  13159 O          64.3296   86.7130    5.7845 O.3   13112  HOH13112    0.0000
  13160 O           2.3221   24.3732   50.2190 O.3   13113  HOH13113    0.0000
  13161 O          19.8951   68.8077   16.4328 O.3   13114  HOH13114    0.0000
  13162 O          24.5394   38.6500   46.5905 O.3   13115  HOH13115    0.0000
  13163 O          42.1123   72.4362    2.1560 O.3   13116  HOH13116    0.0000
  13164 O          68.9739   28.0017   64.4958 O.3   13117  HOH13117    0.0000
  13165 O          86.5468   83.0845   20.0613 O.3   13118  HOH13118    0.0000
  13166 O          38.6500   64.4958   86.5468 O.3   13119  HOH13119    0.0000
  13167 O          72.4362   20.0613   68.9739 O.3   13120  HOH13120    0.0000
  13168 O          28.0017   46.5905   42.1123 O.3   13121  HOH13121    0.0000
  13169 O          83.0845    2.1560   24.5394 O.3   13122  HOH13122    0.0000
  13170 O          64.4958   24.5394   72.4362 O.3   13123  HOH13123    0.0000
  13171 O          20.0613   42.1123   38.6500 O.3   13124  HOH13124    0.0000
  13172 O          46.5905   68.9739   83.0845 O.3   13125  HOH13125    0.0000
  13173 O           2.1560   86.5468   28.0017 O.3   13126  HOH13126    0.0000
  13174 O          28.0017   86.5468    2.1560 O.3   13127  HOH13127    0.0000
  13175 O          83.0845   68.9739   46.5905 O.3   13128  HOH13128    0.0000
  13176 O          38.6500   42.1123   20.0613 O.3   13129  HOH13129    0.0000
  13177 O          72.4362   24.5394   64.4958 O.3   13130  HOH13130    0.0000
  13178 O           2.1560   72.4362   42.1123 O.3   13131  HOH13131    0.0000
  13179 O          46.5905   38.6500   24.5394 O.3   13132  HOH13132    0.0000
  13180 O          20.0613   83.0845   86.5468 O.3   13133  HOH13133    0.0000
  13181 O          64.4958   28.0017   68.9739 O.3   13134  HOH13134    0.0000
  13182 O          42.1123   46.5905   28.0017 O.3   13135  HOH13135    0.0000
  13183 O          24.5394    2.1560   83.0845 O.3   13136  HOH13136    0.0000
  13184 O          86.5468   64.4958   38.6500 O.3   13137  HOH13137    0.0000
  13185 O          68.9739   20.0613   72.4362 O.3   13138  HOH13138    0.0000
  13186 O          64.3296   50.2190   42.2785 O.3   13139  HOH13139    0.0000
  13187 O          46.7566   16.4328   86.7130 O.3   13140  HOH13140    0.0000
  13188 O          19.8951   60.8673   24.3732 O.3   13141  HOH13141    0.0000
  13189 O           2.3221    5.7845   68.8077 O.3   13142  HOH13142    0.0000
  13190 O          50.2190   24.3732    2.3221 O.3   13143  HOH13143    0.0000
  13191 O          16.4328   68.8077   19.8951 O.3   13144  HOH13144    0.0000
  13192 O          60.8673   42.2785   46.7566 O.3   13145  HOH13145    0.0000
  13193 O           5.7845   86.7130   64.3296 O.3   13146  HOH13146    0.0000
  13194 O          24.3732   64.3296   16.4328 O.3   13147  HOH13147    0.0000
  13195 O          68.8077   46.7566   50.2190 O.3   13148  HOH13148    0.0000
  13196 O          42.2785   19.8951    5.7845 O.3   13149  HOH13149    0.0000
  13197 O          86.7130    2.3221   60.8673 O.3   13150  HOH13150    0.0000
  13198 O          60.8673   46.7566   42.2785 O.3   13151  HOH13151    0.0000
  13199 O           5.7845   64.3296   86.7130 O.3   13152  HOH13152    0.0000
  13200 O          50.2190    2.3221   24.3732 O.3   13153  HOH13153    0.0000
  13201 O          16.4328   19.8951   68.8077 O.3   13154  HOH13154    0.0000
  13202 O          86.7130   60.8673    2.3221 O.3   13155  HOH13155    0.0000
  13203 O          42.2785    5.7845   19.8951 O.3   13156  HOH13156    0.0000
  13204 O          68.8077   50.2190   46.7566 O.3   13157  HOH13157    0.0000
  13205 O          24.3732   16.4328   64.3296 O.3   13158  HOH13158    0.0000
  13206 O          46.7566   86.7130   16.4328 O.3   13159  HOH13159    0.0000
  13207 O          64.3296   42.2785   50.2190 O.3   13160  HOH13160    0.0000
  13208 O           2.3221   68.8077    5.7845 O.3   13161  HOH13161    0.0000
  13209 O          19.8951   24.3732   60.8673 O.3   13162  HOH13162    0.0000
  13210 O          24.5394   83.0845    2.1560 O.3   13163  HOH13163    0.0000
  13211 O          42.1123   28.0017   46.5905 O.3   13164  HOH13164    0.0000
  13212 O          68.9739   72.4362   20.0613 O.3   13165  HOH13165    0.0000
  13213 O          86.5468   38.6500   64.4958 O.3   13166  HOH13166    0.0000
  13214 O          38.6500   20.0613   42.1123 O.3   13167  HOH13167    0.0000
  13215 O          72.4362   64.4958   24.5394 O.3   13168  HOH13168    0.0000
  13216 O          28.0017    2.1560   86.5468 O.3   13169  HOH13169    0.0000
  13217 O          83.0845   46.5905   68.9739 O.3   13170  HOH13170    0.0000
  13218 O          64.4958   68.9739   28.0017 O.3   13171  HOH13171    0.0000
  13219 O          20.0613   86.5468   83.0845 O.3   13172  HOH13172    0.0000
  13220 O          46.5905   24.5394   38.6500 O.3   13173  HOH13173    0.0000
  13221 O           2.1560   42.1123   72.4362 O.3   13174  HOH13174    0.0000
  13222 O          28.0017   42.1123   46.5905 O.3   13175  HOH13175    0.0000
  13223 O          83.0845   24.5394    2.1560 O.3   13176  HOH13176    0.0000
  13224 O          38.6500   86.5468   64.4958 O.3   13177  HOH13177    0.0000
  13225 O          72.4362   68.9739   20.0613 O.3   13178  HOH13178    0.0000
  13226 O           2.1560   28.0017   86.5468 O.3   13179  HOH13179    0.0000
  13227 O          46.5905   83.0845   68.9739 O.3   13180  HOH13180    0.0000
  13228 O          20.0613   38.6500   42.1123 O.3   13181  HOH13181    0.0000
  13229 O          64.4958   72.4362   24.5394 O.3   13182  HOH13182    0.0000
  13230 O          42.1123    2.1560   72.4362 O.3   13183  HOH13183    0.0000
  13231 O          24.5394   46.5905   38.6500 O.3   13184  HOH13184    0.0000
  13232 O          86.5468   20.0613   83.0845 O.3   13185  HOH13185    0.0000
  13233 O          68.9739   64.4958   28.0017 O.3   13186  HOH13186    0.0000
  13234 O          64.3296    5.7845   86.7130 O.3   13187  HOH13187    0.0000
  13235 O          46.7566   60.8673   42.2785 O.3   13188  HOH13188    0.0000
  13236 O          19.8951   16.4328   68.8077 O.3   13189  HOH13189    0.0000
  13237 O           2.3221   50.2190   24.3732 O.3   13190  HOH13190    0.0000
  13238 O          50.2190   68.8077   46.7566 O.3   13191  HOH13191    0.0000
  13239 O          16.4328   24.3732   64.3296 O.3   13192  HOH13192    0.0000
  13240 O          60.8673   86.7130    2.3221 O.3   13193  HOH13193    0.0000
  13241 O           5.7845   42.2785   19.8951 O.3   13194  HOH13194    0.0000
  13242 O          24.3732   19.8951   60.8673 O.3   13195  HOH13195    0.0000
  13243 O          68.8077    2.3221    5.7845 O.3   13196  HOH13196    0.0000
  13244 O          42.2785   64.3296   50.2190 O.3   13197  HOH13197    0.0000
  13245 O          86.7130   46.7566   16.4328 O.3   13198  HOH13198    0.0000
  13246 O          56.4389   23.1992   87.8870 O.3   13199  HOH13199    0.0000
  13247 O          12.0044   43.4525   23.1992 O.3   13200  HOH13200    0.0000
  13248 O          54.6473   67.6337   67.6337 O.3   13201  HOH13201    0.0000
  13249 O          43.4525   10.2128   87.8870 O.3   13202  HOH13202    0.0000
  13250 O          87.8870   56.4389   23.1992 O.3   13203  HOH13203    0.0000
  13251 O          23.1992   12.0044   43.4525 O.3   13204  HOH13204    0.0000
  13252 O          67.6337   54.6473   67.6337 O.3   13205  HOH13205    0.0000
  13253 O          87.8870   43.4525   10.2128 O.3   13206  HOH13206    0.0000
  13254 O          23.1992   87.8870   56.4389 O.3   13207  HOH13207    0.0000
  13255 O          43.4525   23.1992   12.0044 O.3   13208  HOH13208    0.0000
  13256 O          67.6337   67.6337   54.6473 O.3   13209  HOH13209    0.0000
  13257 O          65.6697   32.4301    0.9820 O.3   13210  HOH13210    0.0000
  13258 O           0.9820   78.6562   45.4165 O.3   13211  HOH13211    0.0000
  13259 O          21.2352   34.2217   21.2352 O.3   13212  HOH13212    0.0000
  13260 O          45.4165   76.8646   65.6697 O.3   13213  HOH13213    0.0000
  13261 O          76.8646   65.6697   45.4165 O.3   13214  HOH13214    0.0000
  13262 O          34.2217   21.2352   21.2352 O.3   13215  HOH13215    0.0000
  13263 O          78.6562   45.4165    0.9820 O.3   13216  HOH13216    0.0000
  13264 O          32.4301    0.9820   65.6697 O.3   13217  HOH13217    0.0000
  13265 O          21.2352   21.2352   34.2217 O.3   13218  HOH13218    0.0000
  13266 O          65.6697   45.4165   76.8646 O.3   13219  HOH13219    0.0000
  13267 O           0.9820   65.6697   32.4301 O.3   13220  HOH13220    0.0000
  13268 O          45.4165    0.9820   78.6562 O.3   13221  HOH13221    0.0000
  13269 O          78.6562    0.9820   45.4165 O.3   13222  HOH13222    0.0000
  13270 O          32.4301   65.6697    0.9820 O.3   13223  HOH13223    0.0000
  13271 O          76.8646   45.4165   65.6697 O.3   13224  HOH13224    0.0000
  13272 O          45.4165   78.6562    0.9820 O.3   13225  HOH13225    0.0000
  13273 O           0.9820   32.4301   65.6697 O.3   13226  HOH13226    0.0000
  13274 O          65.6697   76.8646   45.4165 O.3   13227  HOH13227    0.0000
  13275 O           0.9820   45.4165   78.6562 O.3   13228  HOH13228    0.0000
  13276 O          65.6697    0.9820   32.4301 O.3   13229  HOH13229    0.0000
  13277 O          45.4165   65.6697   76.8646 O.3   13230  HOH13230    0.0000
  13278 O          23.1992   56.4389   87.8870 O.3   13231  HOH13231    0.0000
  13279 O          87.8870   10.2128   43.4525 O.3   13232  HOH13232    0.0000
  13280 O          43.4525   12.0044   23.1992 O.3   13233  HOH13233    0.0000
  13281 O          12.0044   23.1992   43.4525 O.3   13234  HOH13234    0.0000
  13282 O          10.2128   43.4525   87.8870 O.3   13235  HOH13235    0.0000
  13283 O          56.4389   87.8870   23.1992 O.3   13236  HOH13236    0.0000
  13284 O          23.1992   43.4525   12.0044 O.3   13237  HOH13237    0.0000
  13285 O          87.8870   23.1992   56.4389 O.3   13238  HOH13238    0.0000
  13286 O          43.4525   87.8870   10.2128 O.3   13239  HOH13239    0.0000
  13287 O          56.4389   67.6337   43.4525 O.3   13240  HOH13240    0.0000
  13288 O          12.0044   87.8870   67.6337 O.3   13241  HOH13241    0.0000
  13289 O          54.6473   23.1992   23.1992 O.3   13242  HOH13242    0.0000
  13290 O          43.4525   54.6473   43.4525 O.3   13243  HOH13243    0.0000
  13291 O          87.8870   12.0044   67.6337 O.3   13244  HOH13244    0.0000
  13292 O          67.6337   10.2128   23.1992 O.3   13245  HOH13245    0.0000
  13293 O          87.8870   87.8870   54.6473 O.3   13246  HOH13246    0.0000
  13294 O          43.4525   67.6337   56.4389 O.3   13247  HOH13247    0.0000
  13295 O          67.6337   23.1992   10.2128 O.3   13248  HOH13248    0.0000
  13296 O           0.9820   34.2217    0.9820 O.3   13249  HOH13249    0.0000
  13297 O          21.2352   78.6562   65.6697 O.3   13250  HOH13250    0.0000
  13298 O          45.4165   32.4301   21.2352 O.3   13251  HOH13251    0.0000
  13299 O          76.8646   21.2352    0.9820 O.3   13252  HOH13252    0.0000
  13300 O          34.2217   65.6697   65.6697 O.3   13253  HOH13253    0.0000
  13301 O          32.4301   45.4165   21.2352 O.3   13254  HOH13254    0.0000
  13302 O          21.2352   65.6697   78.6562 O.3   13255  HOH13255    0.0000
  13303 O           0.9820   21.2352   76.8646 O.3   13256  HOH13256    0.0000
  13304 O          45.4165   45.4165   34.2217 O.3   13257  HOH13257    0.0000
  13305 O          32.4301   21.2352   45.4165 O.3   13258  HOH13258    0.0000
  13306 O          76.8646    0.9820   21.2352 O.3   13259  HOH13259    0.0000
  13307 O          45.4165   34.2217   45.4165 O.3   13260  HOH13260    0.0000
  13308 O           0.9820   76.8646   21.2352 O.3   13261  HOH13261    0.0000
  13309 O           0.9820    0.9820   34.2217 O.3   13262  HOH13262    0.0000
  13310 O          45.4165   21.2352   32.4301 O.3   13263  HOH13263    0.0000
  13311 O          87.8870   54.6473   87.8870 O.3   13264  HOH13264    0.0000
  13312 O          43.4525   56.4389   67.6337 O.3   13265  HOH13265    0.0000
  13313 O          12.0044   67.6337   87.8870 O.3   13266  HOH13266    0.0000
  13314 O          56.4389   43.4525   67.6337 O.3   13267  HOH13267    0.0000
  13315 O          87.8870   67.6337   12.0044 O.3   13268  HOH13268    0.0000
  13316 O          43.4525   43.4525   54.6473 O.3   13269  HOH13269    0.0000
  13317 O          54.6473   87.8870   87.8870 O.3   13270  HOH13270    0.0000
  13318 O          10.2128   67.6337   23.1992 O.3   13271  HOH13271    0.0000
  13319 O          67.6337   12.0044   87.8870 O.3   13272  HOH13272    0.0000
  13320 O          23.1992   54.6473   23.1992 O.3   13273  HOH13273    0.0000
  13321 O          67.6337   87.8870   12.0044 O.3   13274  HOH13274    0.0000
  13322 O          23.1992   67.6337   10.2128 O.3   13275  HOH13275    0.0000
  13323 O          21.2352   32.4301   45.4165 O.3   13276  HOH13276    0.0000
  13324 O          65.6697   34.2217   65.6697 O.3   13277  HOH13277    0.0000
  13325 O          78.6562   21.2352   65.6697 O.3   13278  HOH13278    0.0000
  13326 O          34.2217   45.4165   45.4165 O.3   13279  HOH13279    0.0000
  13327 O          65.6697   21.2352   78.6562 O.3   13280  HOH13280    0.0000
  13328 O          21.2352   45.4165   32.4301 O.3   13281  HOH13281    0.0000
  13329 O          34.2217    0.9820    0.9820 O.3   13282  HOH13282    0.0000
  13330 O          21.2352   76.8646    0.9820 O.3   13283  HOH13283    0.0000
  13331 O          21.2352    0.9820   76.8646 O.3   13284  HOH13284    0.0000
  13332 O          67.6337   56.4389   43.4525 O.3   13285  HOH13285    0.0000
  13333 O          54.6473   43.4525   43.4525 O.3   13286  HOH13286    0.0000
  13334 O          67.6337   43.4525   56.4389 O.3   13287  HOH13287    0.0000
  13335 O          10.2128   23.1992   67.6337 O.3   13288  HOH13288    0.0000
  13336 O          23.1992   10.2128   67.6337 O.3   13289  HOH13289    0.0000
  13337 O          23.1992   23.1992   54.6473 O.3   13290  HOH13290    0.0000
  13338 O          65.6697   78.6562   21.2352 O.3   13291  HOH13291    0.0000
  13339 O          78.6562   65.6697   21.2352 O.3   13292  HOH13292    0.0000
  13340 O          65.6697   65.6697   34.2217 O.3   13293  HOH13293    0.0000
  13341 O          43.7822    1.4361   22.8695 O.3   13294  HOH13294    0.0000
  13342 O          88.2167   65.2156   88.2167 O.3   13295  HOH13295    0.0000
  13343 O          67.3040   45.8706   43.7822 O.3   13296  HOH13296    0.0000
  13344 O          67.3040   22.8695   20.7811 O.3   13297  HOH13297    0.0000
  13345 O          22.8695   43.7822    1.4361 O.3   13298  HOH13298    0.0000
  13346 O          88.2167   88.2167   65.2156 O.3   13299  HOH13299    0.0000
  13347 O          43.7822   67.3040   45.8706 O.3   13300  HOH13300    0.0000
  13348 O          20.7811   67.3040   22.8695 O.3   13301  HOH13301    0.0000
  13349 O           1.4361   22.8695   43.7822 O.3   13302  HOH13302    0.0000
  13350 O          65.2156   88.2167   88.2167 O.3   13303  HOH13303    0.0000
  13351 O          45.8706   43.7822   67.3040 O.3   13304  HOH13304    0.0000
  13352 O          87.4329   45.0868   65.9994 O.3   13305  HOH13305    0.0000
  13353 O          68.0879   65.9994   21.5649 O.3   13306  HOH13306    0.0000
  13354 O          42.9984   21.5649   45.0868 O.3   13307  HOH13307    0.0000
  13355 O          23.6534    0.6523    0.6523 O.3   13308  HOH13308    0.0000
  13356 O           0.6523    0.6523   23.6534 O.3   13309  HOH13309    0.0000
  13357 O          21.5649   45.0868   42.9984 O.3   13310  HOH13310    0.0000
  13358 O          65.9994   21.5649   68.0879 O.3   13311  HOH13311    0.0000
  13359 O          45.0868   65.9994   87.4329 O.3   13312  HOH13312    0.0000
  13360 O          45.0868   42.9984   21.5649 O.3   13313  HOH13313    0.0000
  13361 O           0.6523   23.6534    0.6523 O.3   13314  HOH13314    0.0000
  13362 O          65.9994   87.4329   45.0868 O.3   13315  HOH13315    0.0000
  13363 O          21.5649   68.0879   65.9994 O.3   13316  HOH13316    0.0000
  13364 O          65.9994   68.0879   21.5649 O.3   13317  HOH13317    0.0000
  13365 O          45.0868   87.4329   65.9994 O.3   13318  HOH13318    0.0000
  13366 O          21.5649   42.9984   45.0868 O.3   13319  HOH13319    0.0000
  13367 O          21.5649   65.9994   68.0879 O.3   13320  HOH13320    0.0000
  13368 O          65.9994   45.0868   87.4329 O.3   13321  HOH13321    0.0000
  13369 O          45.0868   21.5649   42.9984 O.3   13322  HOH13322    0.0000
  13370 O          68.0879   21.5649   65.9994 O.3   13323  HOH13323    0.0000
  13371 O          87.4329   65.9994   45.0868 O.3   13324  HOH13324    0.0000
  13372 O          42.9984   45.0868   21.5649 O.3   13325  HOH13325    0.0000
  13373 O           1.4361   43.7822   22.8695 O.3   13326  HOH13326    0.0000
  13374 O          20.7811   22.8695   67.3040 O.3   13327  HOH13327    0.0000
  13375 O          45.8706   67.3040   43.7822 O.3   13328  HOH13328    0.0000
  13376 O          67.3040   43.7822   45.8706 O.3   13329  HOH13329    0.0000
  13377 O          22.8695   67.3040   20.7811 O.3   13330  HOH13330    0.0000
  13378 O          43.7822   22.8695    1.4361 O.3   13331  HOH13331    0.0000
  13379 O          43.7822   45.8706   67.3040 O.3   13332  HOH13332    0.0000
  13380 O          22.8695    1.4361   43.7822 O.3   13333  HOH13333    0.0000
  13381 O          67.3040   20.7811   22.8695 O.3   13334  HOH13334    0.0000
  13382 O          22.8695   65.2156   22.8695 O.3   13335  HOH13335    0.0000
  13383 O          88.2167   20.7811   43.7822 O.3   13336  HOH13336    0.0000
  13384 O          67.3040    1.4361   88.2167 O.3   13337  HOH13337    0.0000
  13385 O          67.3040   67.3040   65.2156 O.3   13338  HOH13338    0.0000
  13386 O          22.8695   88.2167   45.8706 O.3   13339  HOH13339    0.0000
  13387 O          88.2167   43.7822   20.7811 O.3   13340  HOH13340    0.0000
  13388 O           1.4361   67.3040   88.2167 O.3   13341  HOH13341    0.0000
  13389 O          65.2156   43.7822   43.7822 O.3   13342  HOH13342    0.0000
  13390 O          45.8706   88.2167   22.8695 O.3   13343  HOH13343    0.0000
  13391 O          87.4329    0.6523   21.5649 O.3   13344  HOH13344    0.0000
  13392 O          42.9984   65.9994    0.6523 O.3   13345  HOH13345    0.0000
  13393 O          23.6534   45.0868   45.0868 O.3   13346  HOH13346    0.0000
  13394 O           0.6523   45.0868   68.0879 O.3   13347  HOH13347    0.0000
  13395 O          21.5649    0.6523   87.4329 O.3   13348  HOH13348    0.0000
  13396 O          65.9994   65.9994   23.6534 O.3   13349  HOH13349    0.0000
  13397 O           0.6523   68.0879   45.0868 O.3   13350  HOH13350    0.0000
  13398 O          65.9994   42.9984    0.6523 O.3   13351  HOH13351    0.0000
  13399 O          21.5649   23.6534   21.5649 O.3   13352  HOH13352    0.0000
  13400 O          65.9994   23.6534   65.9994 O.3   13353  HOH13353    0.0000
  13401 O          21.5649   87.4329    0.6523 O.3   13354  HOH13354    0.0000
  13402 O          21.5649   21.5649   23.6534 O.3   13355  HOH13355    0.0000
  13403 O          65.9994    0.6523   42.9984 O.3   13356  HOH13356    0.0000
  13404 O          87.4329   21.5649    0.6523 O.3   13357  HOH13357    0.0000
  13405 O          42.9984    0.6523   65.9994 O.3   13358  HOH13358    0.0000
  13406 O           1.4361   88.2167   67.3040 O.3   13359  HOH13359    0.0000
  13407 O          45.8706   22.8695   88.2167 O.3   13360  HOH13360    0.0000
  13408 O          67.3040   88.2167    1.4361 O.3   13361  HOH13361    0.0000
  13409 O          22.8695   22.8695   65.2156 O.3   13362  HOH13362    0.0000
  13410 O          22.8695   45.8706   88.2167 O.3   13363  HOH13363    0.0000
  13411 O          67.3040   65.2156   67.3040 O.3   13364  HOH13364    0.0000
  13412 O          88.2167    1.4361   67.3040 O.3   13365  HOH13365    0.0000
  13413 O          43.7822   65.2156   43.7822 O.3   13366  HOH13366    0.0000
  13414 O          43.7822   88.2167   20.7811 O.3   13367  HOH13367    0.0000
  13415 O          88.2167   67.3040    1.4361 O.3   13368  HOH13368    0.0000
  13416 O          65.2156   67.3040   67.3040 O.3   13369  HOH13369    0.0000
  13417 O          20.7811   88.2167   43.7822 O.3   13370  HOH13370    0.0000
  13418 O          23.6534   65.9994   65.9994 O.3   13371  HOH13371    0.0000
  13419 O          68.0879    0.6523   45.0868 O.3   13372  HOH13372    0.0000
  13420 O          45.0868    0.6523   68.0879 O.3   13373  HOH13373    0.0000
  13421 O           0.6523   65.9994   42.9984 O.3   13374  HOH13374    0.0000
  13422 O           0.6523   42.9984   65.9994 O.3   13375  HOH13375    0.0000
  13423 O          45.0868   23.6534   45.0868 O.3   13376  HOH13376    0.0000
  13424 O           0.6523   87.4329   21.5649 O.3   13377  HOH13377    0.0000
  13425 O           0.6523   21.5649   87.4329 O.3   13378  HOH13378    0.0000
  13426 O          23.6534   21.5649   21.5649 O.3   13379  HOH13379    0.0000
  13427 O          65.2156   22.8695   22.8695 O.3   13380  HOH13380    0.0000
  13428 O          88.2167   22.8695   45.8706 O.3   13381  HOH13381    0.0000
  13429 O          88.2167   45.8706   22.8695 O.3   13382  HOH13382    0.0000
  13430 O          43.7822   20.7811   88.2167 O.3   13383  HOH13383    0.0000
  13431 O          43.7822   43.7822   65.2156 O.3   13384  HOH13384    0.0000
  13432 O          20.7811   43.7822   88.2167 O.3   13385  HOH13385    0.0000
  13433 O          68.0879   45.0868    0.6523 O.3   13386  HOH13386    0.0000
  13434 O          45.0868   45.0868   23.6534 O.3   13387  HOH13387    0.0000
  13435 O          45.0868   68.0879    0.6523 O.3   13388  HOH13388    0.0000
  13436 O          43.9564   76.0576   40.2843 O.3   13389  HOH13389    0.0000
  13437 O          88.3909   79.4631   70.8019 O.3   13390  HOH13390    0.0000
  13438 O          67.1299   31.6231   26.3674 O.3   13391  HOH13391    0.0000
  13439 O          84.7188   22.6954   35.0286 O.3   13392  HOH13392    0.0000
  13440 O          40.2843   43.9564   76.0576 O.3   13393  HOH13393    0.0000
  13441 O          70.8019   88.3909   79.4631 O.3   13394  HOH13394    0.0000
  13442 O          26.3674   67.1299   31.6231 O.3   13395  HOH13395    0.0000
  13443 O          35.0286   84.7188   22.6954 O.3   13396  HOH13396    0.0000
  13444 O          76.0576   40.2843   43.9564 O.3   13397  HOH13397    0.0000
  13445 O          79.4631   70.8019   88.3909 O.3   13398  HOH13398    0.0000
  13446 O          31.6231   26.3674   67.1299 O.3   13399  HOH13399    0.0000
  13447 O          12.8114   44.9126   48.5847 O.3   13400  HOH13400    0.0000
  13448 O          53.8404   66.1736    4.1502 O.3   13401  HOH13401    0.0000
  13449 O          57.2458   21.7391   62.5016 O.3   13402  HOH13402    0.0000
  13450 O           9.4059    0.4781   18.0671 O.3   13403  HOH13403    0.0000
  13451 O           0.4781   18.0671    9.4059 O.3   13404  HOH13404    0.0000
  13452 O          21.7391   62.5016   57.2458 O.3   13405  HOH13405    0.0000
  13453 O          66.1736    4.1502   53.8404 O.3   13406  HOH13406    0.0000
  13454 O          44.9126   48.5847   12.8114 O.3   13407  HOH13407    0.0000
  13455 O          62.5016   57.2458   21.7391 O.3   13408  HOH13408    0.0000
  13456 O          18.0671    9.4059    0.4781 O.3   13409  HOH13409    0.0000
  13457 O          48.5847   12.8114   44.9126 O.3   13410  HOH13410    0.0000
  13458 O           4.1502   53.8404   66.1736 O.3   13411  HOH13411    0.0000
  13459 O          66.1736   53.8404    4.1502 O.3   13412  HOH13412    0.0000
  13460 O          44.9126   12.8114   48.5847 O.3   13413  HOH13413    0.0000
  13461 O           0.4781    9.4059   18.0671 O.3   13414  HOH13414    0.0000
  13462 O          21.7391   57.2458   62.5016 O.3   13415  HOH13415    0.0000
  13463 O           4.1502   66.1736   53.8404 O.3   13416  HOH13416    0.0000
  13464 O          48.5847   44.9126   12.8114 O.3   13417  HOH13417    0.0000
  13465 O          18.0671    0.4781    9.4059 O.3   13418  HOH13418    0.0000
  13466 O          62.5016   21.7391   57.2458 O.3   13419  HOH13419    0.0000
  13467 O          53.8404    4.1502   66.1736 O.3   13420  HOH13420    0.0000
  13468 O          12.8114   48.5847   44.9126 O.3   13421  HOH13421    0.0000
  13469 O           9.4059   18.0671    0.4781 O.3   13422  HOH13422    0.0000
  13470 O          57.2458   62.5016   21.7391 O.3   13423  HOH13423    0.0000
  13471 O          76.0576   43.9564   40.2843 O.3   13424  HOH13424    0.0000
  13472 O          35.0286   22.6954   84.7188 O.3   13425  HOH13425    0.0000
  13473 O          31.6231   67.1299   26.3674 O.3   13426  HOH13426    0.0000
  13474 O          79.4631   88.3909   70.8019 O.3   13427  HOH13427    0.0000
  13475 O          88.3909   70.8019   79.4631 O.3   13428  HOH13428    0.0000
  13476 O          67.1299   26.3674   31.6231 O.3   13429  HOH13429    0.0000
  13477 O          22.6954   84.7188   35.0286 O.3   13430  HOH13430    0.0000
  13478 O          43.9564   40.2843   76.0576 O.3   13431  HOH13431    0.0000
  13479 O          26.3674   31.6231   67.1299 O.3   13432  HOH13432    0.0000
  13480 O          70.8019   79.4631   88.3909 O.3   13433  HOH13433    0.0000
  13481 O          40.2843   76.0576   43.9564 O.3   13434  HOH13434    0.0000
  13482 O          84.7188   35.0286   22.6954 O.3   13435  HOH13435    0.0000
  13483 O          22.6954   79.4631   40.2843 O.3   13436  HOH13436    0.0000
  13484 O          43.9564   31.6231   84.7188 O.3   13437  HOH13437    0.0000
  13485 O          88.3909   35.0286   26.3674 O.3   13438  HOH13438    0.0000
  13486 O          67.1299   76.0576   70.8019 O.3   13439  HOH13439    0.0000
  13487 O          84.7188   67.1299   79.4631 O.3   13440  HOH13440    0.0000
  13488 O          40.2843   88.3909   31.6231 O.3   13441  HOH13441    0.0000
  13489 O          70.8019   43.9564   35.0286 O.3   13442  HOH13442    0.0000
  13490 O          26.3674   22.6954   76.0576 O.3   13443  HOH13443    0.0000
  13491 O          35.0286   40.2843   67.1299 O.3   13444  HOH13444    0.0000
  13492 O          76.0576   84.7188   88.3909 O.3   13445  HOH13445    0.0000
  13493 O          79.4631   26.3674   43.9564 O.3   13446  HOH13446    0.0000
  13494 O          31.6231   70.8019   22.6954 O.3   13447  HOH13447    0.0000
  13495 O          12.8114    0.4781    4.1502 O.3   13448  HOH13448    0.0000
  13496 O          53.8404   21.7391   48.5847 O.3   13449  HOH13449    0.0000
  13497 O          57.2458   66.1736   18.0671 O.3   13450  HOH13450    0.0000
  13498 O           9.4059   44.9126   62.5016 O.3   13451  HOH13451    0.0000
  13499 O           0.4781   62.5016   53.8404 O.3   13452  HOH13452    0.0000
  13500 O          21.7391   18.0671   12.8114 O.3   13453  HOH13453    0.0000
  13501 O          66.1736   48.5847    9.4059 O.3   13454  HOH13454    0.0000
  13502 O          44.9126    4.1502   57.2458 O.3   13455  HOH13455    0.0000
  13503 O          62.5016   12.8114   66.1736 O.3   13456  HOH13456    0.0000
  13504 O          18.0671   53.8404   44.9126 O.3   13457  HOH13457    0.0000
  13505 O          48.5847   57.2458    0.4781 O.3   13458  HOH13458    0.0000
  13506 O           4.1502    9.4059   21.7391 O.3   13459  HOH13459    0.0000
  13507 O          66.1736    9.4059   48.5847 O.3   13460  HOH13460    0.0000
  13508 O          44.9126   57.2458    4.1502 O.3   13461  HOH13461    0.0000
  13509 O           0.4781   53.8404   62.5016 O.3   13462  HOH13462    0.0000
  13510 O          21.7391   12.8114   18.0671 O.3   13463  HOH13463    0.0000
  13511 O           4.1502   21.7391    9.4059 O.3   13464  HOH13464    0.0000
  13512 O          48.5847    0.4781   57.2458 O.3   13465  HOH13465    0.0000
  13513 O          18.0671   44.9126   53.8404 O.3   13466  HOH13466    0.0000
  13514 O          62.5016   66.1736   12.8114 O.3   13467  HOH13467    0.0000
  13515 O          53.8404   48.5847   21.7391 O.3   13468  HOH13468    0.0000
  13516 O          12.8114    4.1502    0.4781 O.3   13469  HOH13469    0.0000
  13517 O           9.4059   62.5016   44.9126 O.3   13470  HOH13470    0.0000
  13518 O          57.2458   18.0671   66.1736 O.3   13471  HOH13471    0.0000
  13519 O          76.0576   88.3909   84.7188 O.3   13472  HOH13472    0.0000
  13520 O          35.0286   67.1299   40.2843 O.3   13473  HOH13473    0.0000
  13521 O          31.6231   22.6954   70.8019 O.3   13474  HOH13474    0.0000
  13522 O          79.4631   43.9564   26.3674 O.3   13475  HOH13475    0.0000
  13523 O          88.3909   26.3674   35.0286 O.3   13476  HOH13476    0.0000
  13524 O          67.1299   70.8019   76.0576 O.3   13477  HOH13477    0.0000
  13525 O          22.6954   40.2843   79.4631 O.3   13478  HOH13478    0.0000
  13526 O          43.9564   84.7188   31.6231 O.3   13479  HOH13479    0.0000
  13527 O          26.3674   76.0576   22.6954 O.3   13480  HOH13480    0.0000
  13528 O          70.8019   35.0286   43.9564 O.3   13481  HOH13481    0.0000
  13529 O          40.2843   31.6231   88.3909 O.3   13482  HOH13482    0.0000
  13530 O          84.7188   79.4631   67.1299 O.3   13483  HOH13483    0.0000
  13531 O          67.1299   35.0286   40.2843 O.3   13484  HOH13484    0.0000
  13532 O          88.3909   76.0576   84.7188 O.3   13485  HOH13485    0.0000
  13533 O          43.9564   79.4631   26.3674 O.3   13486  HOH13486    0.0000
  13534 O          22.6954   31.6231   70.8019 O.3   13487  HOH13487    0.0000
  13535 O          40.2843   22.6954   79.4631 O.3   13488  HOH13488    0.0000
  13536 O          84.7188   43.9564   31.6231 O.3   13489  HOH13489    0.0000
  13537 O          26.3674   88.3909   35.0286 O.3   13490  HOH13490    0.0000
  13538 O          70.8019   67.1299   76.0576 O.3   13491  HOH13491    0.0000
  13539 O          79.4631   84.7188   67.1299 O.3   13492  HOH13492    0.0000
  13540 O          31.6231   40.2843   88.3909 O.3   13493  HOH13493    0.0000
  13541 O          35.0286   70.8019   43.9564 O.3   13494  HOH13494    0.0000
  13542 O          76.0576   26.3674   22.6954 O.3   13495  HOH13495    0.0000
  13543 O          57.2458   44.9126    4.1502 O.3   13496  HOH13496    0.0000
  13544 O           9.4059   66.1736   48.5847 O.3   13497  HOH13497    0.0000
  13545 O          12.8114   21.7391   18.0671 O.3   13498  HOH13498    0.0000
  13546 O          53.8404    0.4781   62.5016 O.3   13499  HOH13499    0.0000
  13547 O          44.9126   18.0671   53.8404 O.3   13500  HOH13500    0.0000
  13548 O          66.1736   62.5016   12.8114 O.3   13501  HOH13501    0.0000
  13549 O          21.7391    4.1502    9.4059 O.3   13502  HOH13502    0.0000
  13550 O           0.4781   48.5847   57.2458 O.3   13503  HOH13503    0.0000
  13551 O          18.0671   57.2458   66.1736 O.3   13504  HOH13504    0.0000
  13552 O          62.5016    9.4059   44.9126 O.3   13505  HOH13505    0.0000
  13553 O           4.1502   12.8114    0.4781 O.3   13506  HOH13506    0.0000
  13554 O          48.5847   53.8404   21.7391 O.3   13507  HOH13507    0.0000
  13555 O          21.7391   53.8404   48.5847 O.3   13508  HOH13508    0.0000
  13556 O           0.4781   12.8114    4.1502 O.3   13509  HOH13509    0.0000
  13557 O          44.9126    9.4059   62.5016 O.3   13510  HOH13510    0.0000
  13558 O          66.1736   57.2458   18.0671 O.3   13511  HOH13511    0.0000
  13559 O          48.5847   66.1736    9.4059 O.3   13512  HOH13512    0.0000
  13560 O           4.1502   44.9126   57.2458 O.3   13513  HOH13513    0.0000
  13561 O          62.5016    0.4781   53.8404 O.3   13514  HOH13514    0.0000
  13562 O          18.0671   21.7391   12.8114 O.3   13515  HOH13515    0.0000
  13563 O           9.4059    4.1502   21.7391 O.3   13516  HOH13516    0.0000
  13564 O          57.2458   48.5847    0.4781 O.3   13517  HOH13517    0.0000
  13565 O          53.8404   18.0671   44.9126 O.3   13518  HOH13518    0.0000
  13566 O          12.8114   62.5016   66.1736 O.3   13519  HOH13519    0.0000
  13567 O          31.6231   43.9564   84.7188 O.3   13520  HOH13520    0.0000
  13568 O          79.4631   22.6954   40.2843 O.3   13521  HOH13521    0.0000
  13569 O          76.0576   67.1299   70.8019 O.3   13522  HOH13522    0.0000
  13570 O          35.0286   88.3909   26.3674 O.3   13523  HOH13523    0.0000
  13571 O          43.9564   70.8019   35.0286 O.3   13524  HOH13524    0.0000
  13572 O          22.6954   26.3674   76.0576 O.3   13525  HOH13525    0.0000
  13573 O          67.1299   84.7188   79.4631 O.3   13526  HOH13526    0.0000
  13574 O          88.3909   40.2843   31.6231 O.3   13527  HOH13527    0.0000
  13575 O          70.8019   31.6231   22.6954 O.3   13528  HOH13528    0.0000
  13576 O          26.3674   79.4631   43.9564 O.3   13529  HOH13529    0.0000
  13577 O          84.7188   76.0576   88.3909 O.3   13530  HOH13530    0.0000
  13578 O          40.2843   35.0286   67.1299 O.3   13531  HOH13531    0.0000
  13579 O          67.1299   79.4631   84.7188 O.3   13532  HOH13532    0.0000
  13580 O          88.3909   31.6231   40.2843 O.3   13533  HOH13533    0.0000
  13581 O          43.9564   35.0286   70.8019 O.3   13534  HOH13534    0.0000
  13582 O          22.6954   76.0576   26.3674 O.3   13535  HOH13535    0.0000
  13583 O          40.2843   67.1299   35.0286 O.3   13536  HOH13536    0.0000
  13584 O          84.7188   88.3909   76.0576 O.3   13537  HOH13537    0.0000
  13585 O          26.3674   43.9564   79.4631 O.3   13538  HOH13538    0.0000
  13586 O          70.8019   22.6954   31.6231 O.3   13539  HOH13539    0.0000
  13587 O          79.4631   40.2843   22.6954 O.3   13540  HOH13540    0.0000
  13588 O          31.6231   84.7188   43.9564 O.3   13541  HOH13541    0.0000
  13589 O          35.0286   26.3674   88.3909 O.3   13542  HOH13542    0.0000
  13590 O          76.0576   70.8019   67.1299 O.3   13543  HOH13543    0.0000
  13591 O          57.2458    0.4781   48.5847 O.3   13544  HOH13544    0.0000
  13592 O           9.4059   21.7391    4.1502 O.3   13545  HOH13545    0.0000
  13593 O          12.8114   66.1736   62.5016 O.3   13546  HOH13546    0.0000
  13594 O          53.8404   44.9126   18.0671 O.3   13547  HOH13547    0.0000
  13595 O          44.9126   62.5016    9.4059 O.3   13548  HOH13548    0.0000
  13596 O          66.1736   18.0671   57.2458 O.3   13549  HOH13549    0.0000
  13597 O          21.7391   48.5847   53.8404 O.3   13550  HOH13550    0.0000
  13598 O           0.4781    4.1502   12.8114 O.3   13551  HOH13551    0.0000
  13599 O          18.0671   12.8114   21.7391 O.3   13552  HOH13552    0.0000
  13600 O          62.5016   53.8404    0.4781 O.3   13553  HOH13553    0.0000
  13601 O           4.1502   57.2458   44.9126 O.3   13554  HOH13554    0.0000
  13602 O          48.5847    9.4059   66.1736 O.3   13555  HOH13555    0.0000
  13603 O          21.7391    9.4059    4.1502 O.3   13556  HOH13556    0.0000
  13604 O           0.4781   57.2458   48.5847 O.3   13557  HOH13557    0.0000
  13605 O          44.9126   53.8404   18.0671 O.3   13558  HOH13558    0.0000
  13606 O          66.1736   12.8114   62.5016 O.3   13559  HOH13559    0.0000
  13607 O          48.5847   21.7391   53.8404 O.3   13560  HOH13560    0.0000
  13608 O           4.1502    0.4781   12.8114 O.3   13561  HOH13561    0.0000
  13609 O          62.5016   44.9126    9.4059 O.3   13562  HOH13562    0.0000
  13610 O          18.0671   66.1736   57.2458 O.3   13563  HOH13563    0.0000
  13611 O           9.4059   48.5847   66.1736 O.3   13564  HOH13564    0.0000
  13612 O          57.2458    4.1502   44.9126 O.3   13565  HOH13565    0.0000
  13613 O          53.8404   62.5016    0.4781 O.3   13566  HOH13566    0.0000
  13614 O          12.8114   18.0671   21.7391 O.3   13567  HOH13567    0.0000
  13615 O          31.6231   88.3909   40.2843 O.3   13568  HOH13568    0.0000
  13616 O          79.4631   67.1299   84.7188 O.3   13569  HOH13569    0.0000
  13617 O          76.0576   22.6954   26.3674 O.3   13570  HOH13570    0.0000
  13618 O          35.0286   43.9564   70.8019 O.3   13571  HOH13571    0.0000
  13619 O          43.9564   26.3674   79.4631 O.3   13572  HOH13572    0.0000
  13620 O          22.6954   70.8019   31.6231 O.3   13573  HOH13573    0.0000
  13621 O          67.1299   40.2843   35.0286 O.3   13574  HOH13574    0.0000
  13622 O          88.3909   84.7188   76.0576 O.3   13575  HOH13575    0.0000
  13623 O          70.8019   76.0576   67.1299 O.3   13576  HOH13576    0.0000
  13624 O          26.3674   35.0286   88.3909 O.3   13577  HOH13577    0.0000
  13625 O          84.7188   31.6231   43.9564 O.3   13578  HOH13578    0.0000
  13626 O          40.2843   79.4631   22.6954 O.3   13579  HOH13579    0.0000
  13627 O          55.0463   25.8547   81.6608 O.3   13580  HOH13580    0.0000
  13628 O          10.6118   40.7971   29.4254 O.3   13581  HOH13581    0.0000
  13629 O          56.0399   70.2892   73.8599 O.3   13582  HOH13582    0.0000
  13630 O          37.2263   11.6054   85.2316 O.3   13583  HOH13583    0.0000
  13631 O          81.6608   55.0463   25.8547 O.3   13584  HOH13584    0.0000
  13632 O          29.4254   10.6118   40.7971 O.3   13585  HOH13585    0.0000
  13633 O          73.8599   56.0399   70.2892 O.3   13586  HOH13586    0.0000
  13634 O          85.2316   37.2263   11.6054 O.3   13587  HOH13587    0.0000
  13635 O          25.8547   81.6608   55.0463 O.3   13588  HOH13588    0.0000
  13636 O          40.7971   29.4254   10.6118 O.3   13589  HOH13589    0.0000
  13637 O          70.2892   73.8599   56.0399 O.3   13590  HOH13590    0.0000
  13638 O          63.0143   33.8226    7.2082 O.3   13591  HOH13591    0.0000
  13639 O           3.6374   77.2636   51.6427 O.3   13592  HOH13592    0.0000
  13640 O          18.5798   32.8291   15.0091 O.3   13593  HOH13593    0.0000
  13641 O          48.0719   78.2571   59.4436 O.3   13594  HOH13594    0.0000
  13642 O          78.2571   59.4436   48.0719 O.3   13595  HOH13595    0.0000
  13643 O          32.8291   15.0091   18.5798 O.3   13596  HOH13596    0.0000
  13644 O          77.2636   51.6427    3.6374 O.3   13597  HOH13597    0.0000
  13645 O          33.8226    7.2082   63.0143 O.3   13598  HOH13598    0.0000
  13646 O          15.0091   18.5798   32.8291 O.3   13599  HOH13599    0.0000
  13647 O          59.4436   48.0719   78.2571 O.3   13600  HOH13600    0.0000
  13648 O           7.2082   63.0143   33.8226 O.3   13601  HOH13601    0.0000
  13649 O          51.6427    3.6374   77.2636 O.3   13602  HOH13602    0.0000
  13650 O          77.2636    3.6374   51.6427 O.3   13603  HOH13603    0.0000
  13651 O          33.8226   63.0143    7.2082 O.3   13604  HOH13604    0.0000
  13652 O          78.2571   48.0719   59.4436 O.3   13605  HOH13605    0.0000
  13653 O          32.8291   18.5798   15.0091 O.3   13606  HOH13606    0.0000
  13654 O          51.6427   77.2636    3.6374 O.3   13607  HOH13607    0.0000
  13655 O           7.2082   33.8226   63.0143 O.3   13608  HOH13608    0.0000
  13656 O          59.4436   78.2571   48.0719 O.3   13609  HOH13609    0.0000
  13657 O          15.0091   32.8291   18.5798 O.3   13610  HOH13610    0.0000
  13658 O           3.6374   51.6427   77.2636 O.3   13611  HOH13611    0.0000
  13659 O          63.0143    7.2082   33.8226 O.3   13612  HOH13612    0.0000
  13660 O          48.0719   59.4436   78.2571 O.3   13613  HOH13613    0.0000
  13661 O          18.5798   15.0091   32.8291 O.3   13614  HOH13614    0.0000
  13662 O          25.8547   55.0463   81.6608 O.3   13615  HOH13615    0.0000
  13663 O          85.2316   11.6054   37.2263 O.3   13616  HOH13616    0.0000
  13664 O          70.2892   56.0399   73.8599 O.3   13617  HOH13617    0.0000
  13665 O          40.7971   10.6118   29.4254 O.3   13618  HOH13618    0.0000
  13666 O          10.6118   29.4254   40.7971 O.3   13619  HOH13619    0.0000
  13667 O          56.0399   73.8599   70.2892 O.3   13620  HOH13620    0.0000
  13668 O          11.6054   37.2263   85.2316 O.3   13621  HOH13621    0.0000
  13669 O          55.0463   81.6608   25.8547 O.3   13622  HOH13622    0.0000
  13670 O          73.8599   70.2892   56.0399 O.3   13623  HOH13623    0.0000
  13671 O          29.4254   40.7971   10.6118 O.3   13624  HOH13624    0.0000
  13672 O          81.6608   25.8547   55.0463 O.3   13625  HOH13625    0.0000
  13673 O          37.2263   85.2316   11.6054 O.3   13626  HOH13626    0.0000
  13674 O          11.6054   40.7971   81.6608 O.3   13627  HOH13627    0.0000
  13675 O          55.0463   70.2892   37.2263 O.3   13628  HOH13628    0.0000
  13676 O          10.6118   85.2316   73.8599 O.3   13629  HOH13629    0.0000
  13677 O          56.0399   25.8547   29.4254 O.3   13630  HOH13630    0.0000
  13678 O          37.2263   56.0399   40.7971 O.3   13631  HOH13631    0.0000
  13679 O          81.6608   10.6118   70.2892 O.3   13632  HOH13632    0.0000
  13680 O          29.4254   55.0463   85.2316 O.3   13633  HOH13633    0.0000
  13681 O          73.8599   11.6054   25.8547 O.3   13634  HOH13634    0.0000
  13682 O          85.2316   81.6608   56.0399 O.3   13635  HOH13635    0.0000
  13683 O          25.8547   37.2263   10.6118 O.3   13636  HOH13636    0.0000
  13684 O          40.7971   73.8599   55.0463 O.3   13637  HOH13637    0.0000
  13685 O          70.2892   29.4254   11.6054 O.3   13638  HOH13638    0.0000
  13686 O          63.0143   78.2571   51.6427 O.3   13639  HOH13639    0.0000
  13687 O           3.6374   32.8291    7.2082 O.3   13640  HOH13640    0.0000
  13688 O          18.5798   77.2636   59.4436 O.3   13641  HOH13641    0.0000
  13689 O          48.0719   33.8226   15.0091 O.3   13642  HOH13642    0.0000
  13690 O          78.2571   15.0091    3.6374 O.3   13643  HOH13643    0.0000
  13691 O          32.8291   59.4436   63.0143 O.3   13644  HOH13644    0.0000
  13692 O          77.2636    7.2082   48.0719 O.3   13645  HOH13645    0.0000
  13693 O          33.8226   51.6427   18.5798 O.3   13646  HOH13646    0.0000
  13694 O          15.0091   63.0143   77.2636 O.3   13647  HOH13647    0.0000
  13695 O          59.4436    3.6374   33.8226 O.3   13648  HOH13648    0.0000
  13696 O           7.2082   18.5798   78.2571 O.3   13649  HOH13649    0.0000
  13697 O          51.6427   48.0719   32.8291 O.3   13650  HOH13650    0.0000
  13698 O          77.2636   48.0719    7.2082 O.3   13651  HOH13651    0.0000
  13699 O          33.8226   18.5798   51.6427 O.3   13652  HOH13652    0.0000
  13700 O          78.2571    3.6374   15.0091 O.3   13653  HOH13653    0.0000
  13701 O          32.8291   63.0143   59.4436 O.3   13654  HOH13654    0.0000
  13702 O          51.6427   32.8291   48.0719 O.3   13655  HOH13655    0.0000
  13703 O           7.2082   78.2571   18.5798 O.3   13656  HOH13656    0.0000
  13704 O          59.4436   33.8226    3.6374 O.3   13657  HOH13657    0.0000
  13705 O          15.0091   77.2636   63.0143 O.3   13658  HOH13658    0.0000
  13706 O           3.6374    7.2082   32.8291 O.3   13659  HOH13659    0.0000
  13707 O          63.0143   51.6427   78.2571 O.3   13660  HOH13660    0.0000
  13708 O          48.0719   15.0091   33.8226 O.3   13661  HOH13661    0.0000
  13709 O          18.5798   59.4436   77.2636 O.3   13662  HOH13662    0.0000
  13710 O          25.8547   10.6118   37.2263 O.3   13663  HOH13663    0.0000
  13711 O          85.2316   56.0399   81.6608 O.3   13664  HOH13664    0.0000
  13712 O          70.2892   11.6054   29.4254 O.3   13665  HOH13665    0.0000
  13713 O          40.7971   55.0463   73.8599 O.3   13666  HOH13666    0.0000
  13714 O          10.6118   73.8599   85.2316 O.3   13667  HOH13667    0.0000
  13715 O          56.0399   29.4254   25.8547 O.3   13668  HOH13668    0.0000
  13716 O          11.6054   81.6608   40.7971 O.3   13669  HOH13669    0.0000
  13717 O          55.0463   37.2263   70.2892 O.3   13670  HOH13670    0.0000
  13718 O          73.8599   25.8547   11.6054 O.3   13671  HOH13671    0.0000
  13719 O          29.4254   85.2316   55.0463 O.3   13672  HOH13672    0.0000
  13720 O          81.6608   70.2892   10.6118 O.3   13673  HOH13673    0.0000
  13721 O          37.2263   40.7971   56.0399 O.3   13674  HOH13674    0.0000
  13722 O          56.0399   85.2316   81.6608 O.3   13675  HOH13675    0.0000
  13723 O          10.6118   25.8547   37.2263 O.3   13676  HOH13676    0.0000
  13724 O          55.0463   40.7971   73.8599 O.3   13677  HOH13677    0.0000
  13725 O          11.6054   70.2892   29.4254 O.3   13678  HOH13678    0.0000
  13726 O          81.6608   11.6054   40.7971 O.3   13679  HOH13679    0.0000
  13727 O          37.2263   55.0463   70.2892 O.3   13680  HOH13680    0.0000
  13728 O          73.8599   10.6118   85.2316 O.3   13681  HOH13681    0.0000
  13729 O          29.4254   56.0399   25.8547 O.3   13682  HOH13682    0.0000
  13730 O          40.7971   37.2263   56.0399 O.3   13683  HOH13683    0.0000
  13731 O          70.2892   81.6608   10.6118 O.3   13684  HOH13684    0.0000
  13732 O          85.2316   29.4254   55.0463 O.3   13685  HOH13685    0.0000
  13733 O          25.8547   73.8599   11.6054 O.3   13686  HOH13686    0.0000
  13734 O          18.5798   33.8226   51.6427 O.3   13687  HOH13687    0.0000
  13735 O          48.0719   77.2636    7.2082 O.3   13688  HOH13688    0.0000
  13736 O          63.0143   32.8291   59.4436 O.3   13689  HOH13689    0.0000
  13737 O           3.6374   78.2571   15.0091 O.3   13690  HOH13690    0.0000
  13738 O          33.8226   59.4436    3.6374 O.3   13691  HOH13691    0.0000
  13739 O          77.2636   15.0091   63.0143 O.3   13692  HOH13692    0.0000
  13740 O          32.8291   51.6427   48.0719 O.3   13693  HOH13693    0.0000
  13741 O          78.2571    7.2082   18.5798 O.3   13694  HOH13694    0.0000
  13742 O          59.4436   18.5798   77.2636 O.3   13695  HOH13695    0.0000
  13743 O          15.0091   48.0719   33.8226 O.3   13696  HOH13696    0.0000
  13744 O          51.6427   63.0143   78.2571 O.3   13697  HOH13697    0.0000
  13745 O           7.2082    3.6374   32.8291 O.3   13698  HOH13698    0.0000
  13746 O          32.8291    3.6374    7.2082 O.3   13699  HOH13699    0.0000
  13747 O          78.2571   63.0143   51.6427 O.3   13700  HOH13700    0.0000
  13748 O          33.8226   48.0719   15.0091 O.3   13701  HOH13701    0.0000
  13749 O          77.2636   18.5798   59.4436 O.3   13702  HOH13702    0.0000
  13750 O           7.2082   77.2636   48.0719 O.3   13703  HOH13703    0.0000
  13751 O          51.6427   33.8226   18.5798 O.3   13704  HOH13704    0.0000
  13752 O          15.0091   78.2571    3.6374 O.3   13705  HOH13705    0.0000
  13753 O          59.4436   32.8291   63.0143 O.3   13706  HOH13706    0.0000
  13754 O          48.0719   51.6427   32.8291 O.3   13707  HOH13707    0.0000
  13755 O          18.5798    7.2082   78.2571 O.3   13708  HOH13708    0.0000
  13756 O           3.6374   59.4436   33.8226 O.3   13709  HOH13709    0.0000
  13757 O          63.0143   15.0091   77.2636 O.3   13710  HOH13710    0.0000
  13758 O          70.2892   55.0463   37.2263 O.3   13711  HOH13711    0.0000
  13759 O          40.7971   11.6054   81.6608 O.3   13712  HOH13712    0.0000
  13760 O          25.8547   56.0399   29.4254 O.3   13713  HOH13713    0.0000
  13761 O          85.2316   10.6118   73.8599 O.3   13714  HOH13714    0.0000
  13762 O          55.0463   29.4254   85.2316 O.3   13715  HOH13715    0.0000
  13763 O          11.6054   73.8599   25.8547 O.3   13716  HOH13716    0.0000
  13764 O          56.0399   37.2263   40.7971 O.3   13717  HOH13717    0.0000
  13765 O          10.6118   81.6608   70.2892 O.3   13718  HOH13718    0.0000
  13766 O          29.4254   70.2892   11.6054 O.3   13719  HOH13719    0.0000
  13767 O          73.8599   40.7971   55.0463 O.3   13720  HOH13720    0.0000
  13768 O          37.2263   25.8547   10.6118 O.3   13721  HOH13721    0.0000
  13769 O          81.6608   85.2316   56.0399 O.3   13722  HOH13722    0.0000
  13770 O          56.0399   40.7971   37.2263 O.3   13723  HOH13723    0.0000
  13771 O          10.6118   70.2892   81.6608 O.3   13724  HOH13724    0.0000
  13772 O          55.0463   85.2316   29.4254 O.3   13725  HOH13725    0.0000
  13773 O          11.6054   25.8547   73.8599 O.3   13726  HOH13726    0.0000
  13774 O          81.6608   56.0399   85.2316 O.3   13727  HOH13727    0.0000
  13775 O          37.2263   10.6118   25.8547 O.3   13728  HOH13728    0.0000
  13776 O          73.8599   55.0463   40.7971 O.3   13729  HOH13729    0.0000
  13777 O          29.4254   11.6054   70.2892 O.3   13730  HOH13730    0.0000
  13778 O          40.7971   81.6608   11.6054 O.3   13731  HOH13731    0.0000
  13779 O          70.2892   37.2263   55.0463 O.3   13732  HOH13732    0.0000
  13780 O          85.2316   73.8599   10.6118 O.3   13733  HOH13733    0.0000
  13781 O          25.8547   29.4254   56.0399 O.3   13734  HOH13734    0.0000
  13782 O          18.5798   78.2571    7.2082 O.3   13735  HOH13735    0.0000
  13783 O          48.0719   32.8291   51.6427 O.3   13736  HOH13736    0.0000
  13784 O          63.0143   77.2636   15.0091 O.3   13737  HOH13737    0.0000
  13785 O           3.6374   33.8226   59.4436 O.3   13738  HOH13738    0.0000
  13786 O          33.8226   15.0091   48.0719 O.3   13739  HOH13739    0.0000
  13787 O          77.2636   59.4436   18.5798 O.3   13740  HOH13740    0.0000
  13788 O          32.8291    7.2082    3.6374 O.3   13741  HOH13741    0.0000
  13789 O          78.2571   51.6427   63.0143 O.3   13742  HOH13742    0.0000
  13790 O          59.4436   63.0143   32.8291 O.3   13743  HOH13743    0.0000
  13791 O          15.0091    3.6374   78.2571 O.3   13744  HOH13744    0.0000
  13792 O          51.6427   18.5798   33.8226 O.3   13745  HOH13745    0.0000
  13793 O           7.2082   48.0719   77.2636 O.3   13746  HOH13746    0.0000
  13794 O          32.8291   48.0719   51.6427 O.3   13747  HOH13747    0.0000
  13795 O          78.2571   18.5798    7.2082 O.3   13748  HOH13748    0.0000
  13796 O          33.8226    3.6374   59.4436 O.3   13749  HOH13749    0.0000
  13797 O          77.2636   63.0143   15.0091 O.3   13750  HOH13750    0.0000
  13798 O           7.2082   32.8291    3.6374 O.3   13751  HOH13751    0.0000
  13799 O          51.6427   78.2571   63.0143 O.3   13752  HOH13752    0.0000
  13800 O          15.0091   33.8226   48.0719 O.3   13753  HOH13753    0.0000
  13801 O          59.4436   77.2636   18.5798 O.3   13754  HOH13754    0.0000
  13802 O          48.0719    7.2082   77.2636 O.3   13755  HOH13755    0.0000
  13803 O          18.5798   51.6427   33.8226 O.3   13756  HOH13756    0.0000
  13804 O           3.6374   15.0091   78.2571 O.3   13757  HOH13757    0.0000
  13805 O          63.0143   59.4436   32.8291 O.3   13758  HOH13758    0.0000
  13806 O          70.2892   10.6118   81.6608 O.3   13759  HOH13759    0.0000
  13807 O          40.7971   56.0399   37.2263 O.3   13760  HOH13760    0.0000
  13808 O          25.8547   11.6054   73.8599 O.3   13761  HOH13761    0.0000
  13809 O          85.2316   55.0463   29.4254 O.3   13762  HOH13762    0.0000
  13810 O          55.0463   73.8599   40.7971 O.3   13763  HOH13763    0.0000
  13811 O          11.6054   29.4254   70.2892 O.3   13764  HOH13764    0.0000
  13812 O          56.0399   81.6608   85.2316 O.3   13765  HOH13765    0.0000
  13813 O          10.6118   37.2263   25.8547 O.3   13766  HOH13766    0.0000
  13814 O          29.4254   25.8547   56.0399 O.3   13767  HOH13767    0.0000
  13815 O          73.8599   85.2316   10.6118 O.3   13768  HOH13768    0.0000
  13816 O          37.2263   70.2892   55.0463 O.3   13769  HOH13769    0.0000
  13817 O          81.6608   40.7971   11.6054 O.3   13770  HOH13770    0.0000
  13818 O          55.7271   27.4214   83.6648 O.3   13771  HOH13771    0.0000
  13819 O          11.2926   39.2303   27.4214 O.3   13772  HOH13772    0.0000
  13820 O          55.3592   71.8559   71.8559 O.3   13773  HOH13773    0.0000
  13821 O          39.2303   10.9247   83.6648 O.3   13774  HOH13774    0.0000
  13822 O          83.6648   55.7271   27.4214 O.3   13775  HOH13775    0.0000
  13823 O          27.4214   11.2926   39.2303 O.3   13776  HOH13776    0.0000
  13824 O          71.8559   55.3592   71.8559 O.3   13777  HOH13777    0.0000
  13825 O          83.6648   39.2303   10.9247 O.3   13778  HOH13778    0.0000
  13826 O          27.4214   83.6648   55.7271 O.3   13779  HOH13779    0.0000
  13827 O          39.2303   27.4214   11.2926 O.3   13780  HOH13780    0.0000
  13828 O          71.8559   71.8559   55.3592 O.3   13781  HOH13781    0.0000
  13829 O          61.4476   33.1419    5.2042 O.3   13782  HOH13782    0.0000
  13830 O           5.2042   77.9443   49.6387 O.3   13783  HOH13783    0.0000
  13831 O          17.0131   33.5098   17.0131 O.3   13784  HOH13784    0.0000
  13832 O          49.6387   77.5764   61.4476 O.3   13785  HOH13785    0.0000
  13833 O          77.5764   61.4476   49.6387 O.3   13786  HOH13786    0.0000
  13834 O          33.5098   17.0131   17.0131 O.3   13787  HOH13787    0.0000
  13835 O          77.9443   49.6387    5.2042 O.3   13788  HOH13788    0.0000
  13836 O          33.1419    5.2042   61.4476 O.3   13789  HOH13789    0.0000
  13837 O          17.0131   17.0131   33.5098 O.3   13790  HOH13790    0.0000
  13838 O          61.4476   49.6387   77.5764 O.3   13791  HOH13791    0.0000
  13839 O           5.2042   61.4476   33.1419 O.3   13792  HOH13792    0.0000
  13840 O          49.6387    5.2042   77.9443 O.3   13793  HOH13793    0.0000
  13841 O          77.9443    5.2042   49.6387 O.3   13794  HOH13794    0.0000
  13842 O          33.1419   61.4476    5.2042 O.3   13795  HOH13795    0.0000
  13843 O          77.5764   49.6387   61.4476 O.3   13796  HOH13796    0.0000
  13844 O          49.6387   77.9443    5.2042 O.3   13797  HOH13797    0.0000
  13845 O           5.2042   33.1419   61.4476 O.3   13798  HOH13798    0.0000
  13846 O          61.4476   77.5764   49.6387 O.3   13799  HOH13799    0.0000
  13847 O           5.2042   49.6387   77.9443 O.3   13800  HOH13800    0.0000
  13848 O          61.4476    5.2042   33.1419 O.3   13801  HOH13801    0.0000
  13849 O          49.6387   61.4476   77.5764 O.3   13802  HOH13802    0.0000
  13850 O          27.4214   55.7271   83.6648 O.3   13803  HOH13803    0.0000
  13851 O          83.6648   10.9247   39.2303 O.3   13804  HOH13804    0.0000
  13852 O          39.2303   11.2926   27.4214 O.3   13805  HOH13805    0.0000
  13853 O          11.2926   27.4214   39.2303 O.3   13806  HOH13806    0.0000
  13854 O          10.9247   39.2303   83.6648 O.3   13807  HOH13807    0.0000
  13855 O          55.7271   83.6648   27.4214 O.3   13808  HOH13808    0.0000
  13856 O          27.4214   39.2303   11.2926 O.3   13809  HOH13809    0.0000
  13857 O          83.6648   27.4214   55.7271 O.3   13810  HOH13810    0.0000
  13858 O          39.2303   83.6648   10.9247 O.3   13811  HOH13811    0.0000
  13859 O          55.7271   71.8559   39.2303 O.3   13812  HOH13812    0.0000
  13860 O          11.2926   83.6648   71.8559 O.3   13813  HOH13813    0.0000
  13861 O          55.3592   27.4214   27.4214 O.3   13814  HOH13814    0.0000
  13862 O          39.2303   55.3592   39.2303 O.3   13815  HOH13815    0.0000
  13863 O          83.6648   11.2926   71.8559 O.3   13816  HOH13816    0.0000
  13864 O          71.8559   10.9247   27.4214 O.3   13817  HOH13817    0.0000
  13865 O          83.6648   83.6648   55.3592 O.3   13818  HOH13818    0.0000
  13866 O          39.2303   71.8559   55.7271 O.3   13819  HOH13819    0.0000
  13867 O          71.8559   27.4214   10.9247 O.3   13820  HOH13820    0.0000
  13868 O           5.2042   33.5098    5.2042 O.3   13821  HOH13821    0.0000
  13869 O          17.0131   77.9443   61.4476 O.3   13822  HOH13822    0.0000
  13870 O          49.6387   33.1419   17.0131 O.3   13823  HOH13823    0.0000
  13871 O          77.5764   17.0131    5.2042 O.3   13824  HOH13824    0.0000
  13872 O          33.5098   61.4476   61.4476 O.3   13825  HOH13825    0.0000
  13873 O          33.1419   49.6387   17.0131 O.3   13826  HOH13826    0.0000
  13874 O          17.0131   61.4476   77.9443 O.3   13827  HOH13827    0.0000
  13875 O           5.2042   17.0131   77.5764 O.3   13828  HOH13828    0.0000
  13876 O          49.6387   49.6387   33.5098 O.3   13829  HOH13829    0.0000
  13877 O          33.1419   17.0131   49.6387 O.3   13830  HOH13830    0.0000
  13878 O          77.5764    5.2042   17.0131 O.3   13831  HOH13831    0.0000
  13879 O          49.6387   33.5098   49.6387 O.3   13832  HOH13832    0.0000
  13880 O           5.2042   77.5764   17.0131 O.3   13833  HOH13833    0.0000
  13881 O           5.2042    5.2042   33.5098 O.3   13834  HOH13834    0.0000
  13882 O          49.6387   17.0131   33.1419 O.3   13835  HOH13835    0.0000
  13883 O          83.6648   55.3592   83.6648 O.3   13836  HOH13836    0.0000
  13884 O          39.2303   55.7271   71.8559 O.3   13837  HOH13837    0.0000
  13885 O          11.2926   71.8559   83.6648 O.3   13838  HOH13838    0.0000
  13886 O          55.7271   39.2303   71.8559 O.3   13839  HOH13839    0.0000
  13887 O          83.6648   71.8559   11.2926 O.3   13840  HOH13840    0.0000
  13888 O          39.2303   39.2303   55.3592 O.3   13841  HOH13841    0.0000
  13889 O          55.3592   83.6648   83.6648 O.3   13842  HOH13842    0.0000
  13890 O          10.9247   71.8559   27.4214 O.3   13843  HOH13843    0.0000
  13891 O          71.8559   11.2926   83.6648 O.3   13844  HOH13844    0.0000
  13892 O          27.4214   55.3592   27.4214 O.3   13845  HOH13845    0.0000
  13893 O          71.8559   83.6648   11.2926 O.3   13846  HOH13846    0.0000
  13894 O          27.4214   71.8559   10.9247 O.3   13847  HOH13847    0.0000
  13895 O          17.0131   33.1419   49.6387 O.3   13848  HOH13848    0.0000
  13896 O          61.4476   33.5098   61.4476 O.3   13849  HOH13849    0.0000
  13897 O          77.9443   17.0131   61.4476 O.3   13850  HOH13850    0.0000
  13898 O          33.5098   49.6387   49.6387 O.3   13851  HOH13851    0.0000
  13899 O          61.4476   17.0131   77.9443 O.3   13852  HOH13852    0.0000
  13900 O          17.0131   49.6387   33.1419 O.3   13853  HOH13853    0.0000
  13901 O          33.5098    5.2042    5.2042 O.3   13854  HOH13854    0.0000
  13902 O          17.0131   77.5764    5.2042 O.3   13855  HOH13855    0.0000
  13903 O          17.0131    5.2042   77.5764 O.3   13856  HOH13856    0.0000
  13904 O          71.8559   55.7271   39.2303 O.3   13857  HOH13857    0.0000
  13905 O          55.3592   39.2303   39.2303 O.3   13858  HOH13858    0.0000
  13906 O          71.8559   39.2303   55.7271 O.3   13859  HOH13859    0.0000
  13907 O          10.9247   27.4214   71.8559 O.3   13860  HOH13860    0.0000
  13908 O          27.4214   10.9247   71.8559 O.3   13861  HOH13861    0.0000
  13909 O          27.4214   27.4214   55.3592 O.3   13862  HOH13862    0.0000
  13910 O          61.4476   77.9443   17.0131 O.3   13863  HOH13863    0.0000
  13911 O          77.9443   61.4476   17.0131 O.3   13864  HOH13864    0.0000
  13912 O          61.4476   61.4476   33.5098 O.3   13865  HOH13865    0.0000
  13913 O          52.5696    8.1351   14.0831 O.3   13866  HOH13866    0.0000
  13914 O           8.1351   58.5167    8.1342 O.3   13867  HOH13867    0.0000
  13915 O          58.5167   52.5696   52.5687 O.3   13868  HOH13868    0.0000
  13916 O          58.5176   14.0822   14.0822 O.3   13869  HOH13869    0.0000
  13917 O          14.0831   52.5696    8.1351 O.3   13870  HOH13870    0.0000
  13918 O           8.1342    8.1351   58.5167 O.3   13871  HOH13871    0.0000
  13919 O          52.5687   58.5167   52.5696 O.3   13872  HOH13872    0.0000
  13920 O          14.0822   58.5176   14.0822 O.3   13873  HOH13873    0.0000
  13921 O           8.1351   14.0831   52.5696 O.3   13874  HOH13874    0.0000
  13922 O          58.5167    8.1342    8.1351 O.3   13875  HOH13875    0.0000
  13923 O          52.5696   52.5687   58.5167 O.3   13876  HOH13876    0.0000
  13924 O          80.7339   36.2994   74.7859 O.3   13877  HOH13877    0.0000
  13925 O          74.7868   74.7868   30.3514 O.3   13878  HOH13878    0.0000
  13926 O          36.2994   30.3523   36.3003 O.3   13879  HOH13879    0.0000
  13927 O          30.3523   80.7339   80.7348 O.3   13880  HOH13880    0.0000
  13928 O          80.7339   80.7348   30.3523 O.3   13881  HOH13881    0.0000
  13929 O          30.3523   36.3003   36.2994 O.3   13882  HOH13882    0.0000
  13930 O          74.7868   30.3514   74.7868 O.3   13883  HOH13883    0.0000
  13931 O          36.2994   74.7859   80.7339 O.3   13884  HOH13884    0.0000
  13932 O          36.3003   36.2994   30.3523 O.3   13885  HOH13885    0.0000
  13933 O          80.7348   30.3523   80.7339 O.3   13886  HOH13886    0.0000
  13934 O          74.7859   80.7339   36.2994 O.3   13887  HOH13887    0.0000
  13935 O          30.3514   74.7868   74.7868 O.3   13888  HOH13888    0.0000
  13936 O          36.2994   80.7339   74.7859 O.3   13889  HOH13889    0.0000
  13937 O          74.7859   36.2994   80.7339 O.3   13890  HOH13890    0.0000
  13938 O          80.7339   74.7859   36.2994 O.3   13891  HOH13891    0.0000
  13939 O           8.1351   52.5696   14.0831 O.3   13892  HOH13892    0.0000
  13940 O          52.5696   14.0831    8.1351 O.3   13893  HOH13893    0.0000
  13941 O          14.0831    8.1351   52.5696 O.3   13894  HOH13894    0.0000
  13942 O          58.5176   58.5167   58.5167 O.3   13895  HOH13895    0.0000
  13943 O          30.3514   30.3523   30.3523 O.3   13896  HOH13896    0.0000
  13944 O          34.9140   85.9852   16.6932 O.3   13897  HOH13897    0.0000
  13945 O          79.3485   69.5355    5.5241 O.3   13898  HOH13898    0.0000
  13946 O          76.1723   41.5507   49.9586 O.3   13899  HOH13899    0.0000
  13947 O          61.1276   31.7378   25.1010 O.3   13900  HOH13900    0.0000
  13948 O          16.6932   34.9140   85.9852 O.3   13901  HOH13901    0.0000
  13949 O           5.5241   79.3485   69.5355 O.3   13902  HOH13902    0.0000
  13950 O          49.9586   76.1723   41.5507 O.3   13903  HOH13903    0.0000
  13951 O          25.1010   61.1276   31.7378 O.3   13904  HOH13904    0.0000
  13952 O          85.9852   16.6932   34.9140 O.3   13905  HOH13905    0.0000
  13953 O          69.5355    5.5241   79.3485 O.3   13906  HOH13906    0.0000
  13954 O          41.5507   49.9586   76.1723 O.3   13907  HOH13907    0.0000
  13955 O           2.8838   53.9550   72.1758 O.3   13908  HOH13908    0.0000
  13956 O          63.7679   57.1312   27.7413 O.3   13909  HOH13909    0.0000
  13957 O          47.3183   12.6967   38.9104 O.3   13910  HOH13910    0.0000
  13958 O          19.3334    9.5205   83.3449 O.3   13911  HOH13911    0.0000
  13959 O           9.5205   83.3449   19.3334 O.3   13912  HOH13912    0.0000
  13960 O          12.6967   38.9104   47.3183 O.3   13913  HOH13913    0.0000
  13961 O          57.1312   27.7413   63.7679 O.3   13914  HOH13914    0.0000
  13962 O          53.9550   72.1758    2.8838 O.3   13915  HOH13915    0.0000
  13963 O          38.9104   47.3183   12.6967 O.3   13916  HOH13916    0.0000
  13964 O          83.3449   19.3334    9.5205 O.3   13917  HOH13917    0.0000
  13965 O          72.1758    2.8838   53.9550 O.3   13918  HOH13918    0.0000
  13966 O          27.7413   63.7679   57.1312 O.3   13919  HOH13919    0.0000
  13967 O          57.1312   63.7679   27.7413 O.3   13920  HOH13920    0.0000
  13968 O          53.9550    2.8838   72.1758 O.3   13921  HOH13921    0.0000
  13969 O           9.5205   19.3334   83.3449 O.3   13922  HOH13922    0.0000
  13970 O          12.6967   47.3183   38.9104 O.3   13923  HOH13923    0.0000
  13971 O          27.7413   57.1312   63.7679 O.3   13924  HOH13924    0.0000
  13972 O          72.1758   53.9550    2.8838 O.3   13925  HOH13925    0.0000
  13973 O          83.3449    9.5205   19.3334 O.3   13926  HOH13926    0.0000
  13974 O          38.9104   12.6967   47.3183 O.3   13927  HOH13927    0.0000
  13975 O          63.7679   27.7413   57.1312 O.3   13928  HOH13928    0.0000
  13976 O           2.8838   72.1758   53.9550 O.3   13929  HOH13929    0.0000
  13977 O          19.3334   83.3449    9.5205 O.3   13930  HOH13930    0.0000
  13978 O          47.3183   38.9104   12.6967 O.3   13931  HOH13931    0.0000
  13979 O          85.9852   34.9140   16.6932 O.3   13932  HOH13932    0.0000
  13980 O          25.1010   31.7378   61.1276 O.3   13933  HOH13933    0.0000
  13981 O          41.5507   76.1723   49.9586 O.3   13934  HOH13934    0.0000
  13982 O          69.5355   79.3485    5.5241 O.3   13935  HOH13935    0.0000
  13983 O          79.3485    5.5241   69.5355 O.3   13936  HOH13936    0.0000
  13984 O          76.1723   49.9586   41.5507 O.3   13937  HOH13937    0.0000
  13985 O          31.7378   61.1276   25.1010 O.3   13938  HOH13938    0.0000
  13986 O          34.9140   16.6932   85.9852 O.3   13939  HOH13939    0.0000
  13987 O          49.9586   41.5507   76.1723 O.3   13940  HOH13940    0.0000
  13988 O           5.5241   69.5355   79.3485 O.3   13941  HOH13941    0.0000
  13989 O          16.6932   85.9852   34.9140 O.3   13942  HOH13942    0.0000
  13990 O          61.1276   25.1010   31.7378 O.3   13943  HOH13943    0.0000
  13991 O          31.7378   69.5355   16.6932 O.3   13944  HOH13944    0.0000
  13992 O          34.9140   41.5507   61.1276 O.3   13945  HOH13945    0.0000
  13993 O          79.3485   25.1010   49.9586 O.3   13946  HOH13946    0.0000
  13994 O          76.1723   85.9852    5.5241 O.3   13947  HOH13947    0.0000
  13995 O          61.1276   76.1723   69.5355 O.3   13948  HOH13948    0.0000
  13996 O          16.6932   79.3485   41.5507 O.3   13949  HOH13949    0.0000
  13997 O           5.5241   34.9140   25.1010 O.3   13950  HOH13950    0.0000
  13998 O          49.9586   31.7378   85.9852 O.3   13951  HOH13951    0.0000
  13999 O          25.1010   16.6932   76.1723 O.3   13952  HOH13952    0.0000
  14000 O          85.9852   61.1276   79.3485 O.3   13953  HOH13953    0.0000
  14001 O          69.5355   49.9586   34.9140 O.3   13954  HOH13954    0.0000
  14002 O          41.5507    5.5241   31.7378 O.3   13955  HOH13955    0.0000
  14003 O           2.8838    9.5205   27.7413 O.3   13956  HOH13956    0.0000
  14004 O          63.7679   12.6967   72.1758 O.3   13957  HOH13957    0.0000
  14005 O          47.3183   57.1312   83.3449 O.3   13958  HOH13958    0.0000
  14006 O          19.3334   53.9550   38.9104 O.3   13959  HOH13959    0.0000
  14007 O           9.5205   38.9104   63.7679 O.3   13960  HOH13960    0.0000
  14008 O          12.6967   83.3449    2.8838 O.3   13961  HOH13961    0.0000
  14009 O          57.1312   72.1758   19.3334 O.3   13962  HOH13962    0.0000
  14010 O          53.9550   27.7413   47.3183 O.3   13963  HOH13963    0.0000
  14011 O          38.9104    2.8838   57.1312 O.3   13964  HOH13964    0.0000
  14012 O          83.3449   63.7679   53.9550 O.3   13965  HOH13965    0.0000
  14013 O          72.1758   47.3183    9.5205 O.3   13966  HOH13966    0.0000
  14014 O          27.7413   19.3334   12.6967 O.3   13967  HOH13967    0.0000
  14015 O          57.1312   19.3334   72.1758 O.3   13968  HOH13968    0.0000
  14016 O          53.9550   47.3183   27.7413 O.3   13969  HOH13969    0.0000
  14017 O           9.5205   63.7679   38.9104 O.3   13970  HOH13970    0.0000
  14018 O          12.6967    2.8838   83.3449 O.3   13971  HOH13971    0.0000
  14019 O          27.7413   12.6967   19.3334 O.3   13972  HOH13972    0.0000
  14020 O          72.1758    9.5205   47.3183 O.3   13973  HOH13973    0.0000
  14021 O          83.3449   53.9550   63.7679 O.3   13974  HOH13974    0.0000
  14022 O          38.9104   57.1312    2.8838 O.3   13975  HOH13975    0.0000
  14023 O          63.7679   72.1758   12.6967 O.3   13976  HOH13976    0.0000
  14024 O           2.8838   27.7413    9.5205 O.3   13977  HOH13977    0.0000
  14025 O          19.3334   38.9104   53.9550 O.3   13978  HOH13978    0.0000
  14026 O          47.3183   83.3449   57.1312 O.3   13979  HOH13979    0.0000
  14027 O          85.9852   79.3485   61.1276 O.3   13980  HOH13980    0.0000
  14028 O          25.1010   76.1723   16.6932 O.3   13981  HOH13981    0.0000
  14029 O          41.5507   31.7378    5.5241 O.3   13982  HOH13982    0.0000
  14030 O          69.5355   34.9140   49.9586 O.3   13983  HOH13983    0.0000
  14031 O          79.3485   49.9586   25.1010 O.3   13984  HOH13984    0.0000
  14032 O          76.1723    5.5241   85.9852 O.3   13985  HOH13985    0.0000
  14033 O          31.7378   16.6932   69.5355 O.3   13986  HOH13986    0.0000
  14034 O          34.9140   61.1276   41.5507 O.3   13987  HOH13987    0.0000
  14035 O          49.9586   85.9852   31.7378 O.3   13988  HOH13988    0.0000
  14036 O           5.5241   25.1010   34.9140 O.3   13989  HOH13989    0.0000
  14037 O          16.6932   41.5507   79.3485 O.3   13990  HOH13990    0.0000
  14038 O          61.1276   69.5355   76.1723 O.3   13991  HOH13991    0.0000
  14039 O          76.1723   25.1010   16.6932 O.3   13992  HOH13992    0.0000
  14040 O          79.3485   85.9852   61.1276 O.3   13993  HOH13993    0.0000
  14041 O          34.9140   69.5355   49.9586 O.3   13994  HOH13994    0.0000
  14042 O          31.7378   41.5507    5.5241 O.3   13995  HOH13995    0.0000
  14043 O          16.6932   31.7378   69.5355 O.3   13996  HOH13996    0.0000
  14044 O          61.1276   34.9140   41.5507 O.3   13997  HOH13997    0.0000
  14045 O          49.9586   79.3485   25.1010 O.3   13998  HOH13998    0.0000
  14046 O           5.5241   76.1723   85.9852 O.3   13999  HOH13999    0.0000
  14047 O          69.5355   61.1276   76.1723 O.3   14000  HOH14000    0.0000
  14048 O          41.5507   16.6932   79.3485 O.3   14001  HOH14001    0.0000
  14049 O          25.1010    5.5241   34.9140 O.3   14002  HOH14002    0.0000
  14050 O          85.9852   49.9586   31.7378 O.3   14003  HOH14003    0.0000
  14051 O          47.3183   53.9550   27.7413 O.3   14004  HOH14004    0.0000
  14052 O          19.3334   57.1312   72.1758 O.3   14005  HOH14005    0.0000
  14053 O           2.8838   12.6967   83.3449 O.3   14006  HOH14006    0.0000
  14054 O          63.7679    9.5205   38.9104 O.3   14007  HOH14007    0.0000
  14055 O          53.9550   83.3449   63.7679 O.3   14008  HOH14008    0.0000
  14056 O          57.1312   38.9104    2.8838 O.3   14009  HOH14009    0.0000
  14057 O          12.6967   27.7413   19.3334 O.3   14010  HOH14010    0.0000
  14058 O           9.5205   72.1758   47.3183 O.3   14011  HOH14011    0.0000
  14059 O          83.3449   47.3183   57.1312 O.3   14012  HOH14012    0.0000
  14060 O          38.9104   19.3334   53.9550 O.3   14013  HOH14013    0.0000
  14061 O          27.7413    2.8838    9.5205 O.3   14014  HOH14014    0.0000
  14062 O          72.1758   63.7679   12.6967 O.3   14015  HOH14015    0.0000
  14063 O          12.6967   63.7679   72.1758 O.3   14016  HOH14016    0.0000
  14064 O           9.5205    2.8838   27.7413 O.3   14017  HOH14017    0.0000
  14065 O          53.9550   19.3334   38.9104 O.3   14018  HOH14018    0.0000
  14066 O          57.1312   47.3183   83.3449 O.3   14019  HOH14019    0.0000
  14067 O          72.1758   57.1312   19.3334 O.3   14020  HOH14020    0.0000
  14068 O          27.7413   53.9550   47.3183 O.3   14021  HOH14021    0.0000
  14069 O          38.9104    9.5205   63.7679 O.3   14022  HOH14022    0.0000
  14070 O          83.3449   12.6967    2.8838 O.3   14023  HOH14023    0.0000
  14071 O          19.3334   27.7413   12.6967 O.3   14024  HOH14024    0.0000
  14072 O          47.3183   72.1758    9.5205 O.3   14025  HOH14025    0.0000
  14073 O          63.7679   83.3449   53.9550 O.3   14026  HOH14026    0.0000
  14074 O           2.8838   38.9104   57.1312 O.3   14027  HOH14027    0.0000
  14075 O          41.5507   34.9140   61.1276 O.3   14028  HOH14028    0.0000
  14076 O          69.5355   31.7378   16.6932 O.3   14029  HOH14029    0.0000
  14077 O          85.9852   76.1723    5.5241 O.3   14030  HOH14030    0.0000
  14078 O          25.1010   79.3485   49.9586 O.3   14031  HOH14031    0.0000
  14079 O          34.9140    5.5241   25.1010 O.3   14032  HOH14032    0.0000
  14080 O          31.7378   49.9586   85.9852 O.3   14033  HOH14033    0.0000
  14081 O          76.1723   61.1276   69.5355 O.3   14034  HOH14034    0.0000
  14082 O          79.3485   16.6932   41.5507 O.3   14035  HOH14035    0.0000
  14083 O           5.5241   41.5507   31.7378 O.3   14036  HOH14036    0.0000
  14084 O          49.9586   69.5355   34.9140 O.3   14037  HOH14037    0.0000
  14085 O          61.1276   85.9852   79.3485 O.3   14038  HOH14038    0.0000
  14086 O          16.6932   25.1010   76.1723 O.3   14039  HOH14039    0.0000
  14087 O          76.1723   69.5355   61.1276 O.3   14040  HOH14040    0.0000
  14088 O          79.3485   41.5507   16.6932 O.3   14041  HOH14041    0.0000
  14089 O          34.9140   25.1010    5.5241 O.3   14042  HOH14042    0.0000
  14090 O          31.7378   85.9852   49.9586 O.3   14043  HOH14043    0.0000
  14091 O          16.6932   76.1723   25.1010 O.3   14044  HOH14044    0.0000
  14092 O          61.1276   79.3485   85.9852 O.3   14045  HOH14045    0.0000
  14093 O          49.9586   34.9140   69.5355 O.3   14046  HOH14046    0.0000
  14094 O           5.5241   31.7378   41.5507 O.3   14047  HOH14047    0.0000
  14095 O          69.5355   16.6932   31.7378 O.3   14048  HOH14048    0.0000
  14096 O          41.5507   61.1276   34.9140 O.3   14049  HOH14049    0.0000
  14097 O          25.1010   49.9586   79.3485 O.3   14050  HOH14050    0.0000
  14098 O          85.9852    5.5241   76.1723 O.3   14051  HOH14051    0.0000
  14099 O          47.3183    9.5205   72.1758 O.3   14052  HOH14052    0.0000
  14100 O          19.3334   12.6967   27.7413 O.3   14053  HOH14053    0.0000
  14101 O           2.8838   57.1312   38.9104 O.3   14054  HOH14054    0.0000
  14102 O          63.7679   53.9550   83.3449 O.3   14055  HOH14055    0.0000
  14103 O          53.9550   38.9104   19.3334 O.3   14056  HOH14056    0.0000
  14104 O          57.1312   83.3449   47.3183 O.3   14057  HOH14057    0.0000
  14105 O          12.6967   72.1758   63.7679 O.3   14058  HOH14058    0.0000
  14106 O           9.5205   27.7413    2.8838 O.3   14059  HOH14059    0.0000
  14107 O          83.3449    2.8838   12.6967 O.3   14060  HOH14060    0.0000
  14108 O          38.9104   63.7679    9.5205 O.3   14061  HOH14061    0.0000
  14109 O          27.7413   47.3183   53.9550 O.3   14062  HOH14062    0.0000
  14110 O          72.1758   19.3334   57.1312 O.3   14063  HOH14063    0.0000
  14111 O          12.6967   19.3334   27.7413 O.3   14064  HOH14064    0.0000
  14112 O           9.5205   47.3183   72.1758 O.3   14065  HOH14065    0.0000
  14113 O          53.9550   63.7679   83.3449 O.3   14066  HOH14066    0.0000
  14114 O          57.1312    2.8838   38.9104 O.3   14067  HOH14067    0.0000
  14115 O          72.1758   12.6967   63.7679 O.3   14068  HOH14068    0.0000
  14116 O          27.7413    9.5205    2.8838 O.3   14069  HOH14069    0.0000
  14117 O          38.9104   53.9550   19.3334 O.3   14070  HOH14070    0.0000
  14118 O          83.3449   57.1312   47.3183 O.3   14071  HOH14071    0.0000
  14119 O          19.3334   72.1758   57.1312 O.3   14072  HOH14072    0.0000
  14120 O          47.3183   27.7413   53.9550 O.3   14073  HOH14073    0.0000
  14121 O          63.7679   38.9104    9.5205 O.3   14074  HOH14074    0.0000
  14122 O           2.8838   83.3449   12.6967 O.3   14075  HOH14075    0.0000
  14123 O          41.5507   79.3485   16.6932 O.3   14076  HOH14076    0.0000
  14124 O          69.5355   76.1723   61.1276 O.3   14077  HOH14077    0.0000
  14125 O          85.9852   31.7378   49.9586 O.3   14078  HOH14078    0.0000
  14126 O          25.1010   34.9140    5.5241 O.3   14079  HOH14079    0.0000
  14127 O          34.9140   49.9586   69.5355 O.3   14080  HOH14080    0.0000
  14128 O          31.7378    5.5241   41.5507 O.3   14081  HOH14081    0.0000
  14129 O          76.1723   16.6932   25.1010 O.3   14082  HOH14082    0.0000
  14130 O          79.3485   61.1276   85.9852 O.3   14083  HOH14083    0.0000
  14131 O           5.5241   85.9852   76.1723 O.3   14084  HOH14084    0.0000
  14132 O          49.9586   25.1010   79.3485 O.3   14085  HOH14085    0.0000
  14133 O          61.1276   41.5507   34.9140 O.3   14086  HOH14086    0.0000
  14134 O          16.6932   69.5355   31.7378 O.3   14087  HOH14087    0.0000
  14135 O          54.5611   28.0622   80.9534 O.3   14088  HOH14088    0.0000
  14136 O          10.1266   38.5896   30.1328 O.3   14089  HOH14089    0.0000
  14137 O          56.5251   72.4967   74.5673 O.3   14090  HOH14090    0.0000
  14138 O          36.5189   12.0906   83.0241 O.3   14091  HOH14091    0.0000
  14139 O          80.9534   54.5611   28.0622 O.3   14092  HOH14092    0.0000
  14140 O          30.1328   10.1266   38.5896 O.3   14093  HOH14093    0.0000
  14141 O          74.5673   56.5251   72.4967 O.3   14094  HOH14094    0.0000
  14142 O          83.0241   36.5189   12.0906 O.3   14095  HOH14095    0.0000
  14143 O          28.0622   80.9534   54.5611 O.3   14096  HOH14096    0.0000
  14144 O          38.5896   30.1328   10.1266 O.3   14097  HOH14097    0.0000
  14145 O          72.4967   74.5673   56.5251 O.3   14098  HOH14098    0.0000
  14146 O          60.8068   34.3079    7.9156 O.3   14099  HOH14099    0.0000
  14147 O           5.8449   76.7784   52.3501 O.3   14100  HOH14100    0.0000
  14148 O          16.3723   32.3439   14.3017 O.3   14101  HOH14101    0.0000
  14149 O          50.2794   78.7424   58.7362 O.3   14102  HOH14102    0.0000
  14150 O          78.7424   58.7362   50.2794 O.3   14103  HOH14103    0.0000
  14151 O          32.3439   14.3017   16.3723 O.3   14104  HOH14104    0.0000
  14152 O          76.7784   52.3501    5.8449 O.3   14105  HOH14105    0.0000
  14153 O          34.3079    7.9156   60.8068 O.3   14106  HOH14106    0.0000
  14154 O          14.3017   16.3723   32.3439 O.3   14107  HOH14107    0.0000
  14155 O          58.7362   50.2794   78.7424 O.3   14108  HOH14108    0.0000
  14156 O           7.9156   60.8068   34.3079 O.3   14109  HOH14109    0.0000
  14157 O          52.3501    5.8449   76.7784 O.3   14110  HOH14110    0.0000
  14158 O          76.7784    5.8449   52.3501 O.3   14111  HOH14111    0.0000
  14159 O          34.3079   60.8068    7.9156 O.3   14112  HOH14112    0.0000
  14160 O          78.7424   50.2794   58.7362 O.3   14113  HOH14113    0.0000
  14161 O          32.3439   16.3723   14.3017 O.3   14114  HOH14114    0.0000
  14162 O          52.3501   76.7784    5.8449 O.3   14115  HOH14115    0.0000
  14163 O           7.9156   34.3079   60.8068 O.3   14116  HOH14116    0.0000
  14164 O          58.7362   78.7424   50.2794 O.3   14117  HOH14117    0.0000
  14165 O          14.3017   32.3439   16.3723 O.3   14118  HOH14118    0.0000
  14166 O           5.8449   52.3501   76.7784 O.3   14119  HOH14119    0.0000
  14167 O          60.8068    7.9156   34.3079 O.3   14120  HOH14120    0.0000
  14168 O          50.2794   58.7362   78.7424 O.3   14121  HOH14121    0.0000
  14169 O          16.3723   14.3017   32.3439 O.3   14122  HOH14122    0.0000
  14170 O          28.0622   54.5611   80.9534 O.3   14123  HOH14123    0.0000
  14171 O          83.0241   12.0906   36.5189 O.3   14124  HOH14124    0.0000
  14172 O          72.4967   56.5251   74.5673 O.3   14125  HOH14125    0.0000
  14173 O          38.5896   10.1266   30.1328 O.3   14126  HOH14126    0.0000
  14174 O          10.1266   30.1328   38.5896 O.3   14127  HOH14127    0.0000
  14175 O          56.5251   74.5673   72.4967 O.3   14128  HOH14128    0.0000
  14176 O          12.0906   36.5189   83.0241 O.3   14129  HOH14129    0.0000
  14177 O          54.5611   80.9534   28.0622 O.3   14130  HOH14130    0.0000
  14178 O          74.5673   72.4967   56.5251 O.3   14131  HOH14131    0.0000
  14179 O          30.1328   38.5896   10.1266 O.3   14132  HOH14132    0.0000
  14180 O          80.9534   28.0622   54.5611 O.3   14133  HOH14133    0.0000
  14181 O          36.5189   83.0241   12.0906 O.3   14134  HOH14134    0.0000
  14182 O          12.0906   38.5896   80.9534 O.3   14135  HOH14135    0.0000
  14183 O          54.5611   72.4967   36.5189 O.3   14136  HOH14136    0.0000
  14184 O          10.1266   83.0241   74.5673 O.3   14137  HOH14137    0.0000
  14185 O          56.5251   28.0622   30.1328 O.3   14138  HOH14138    0.0000
  14186 O          36.5189   56.5251   38.5896 O.3   14139  HOH14139    0.0000
  14187 O          80.9534   10.1266   72.4967 O.3   14140  HOH14140    0.0000
  14188 O          30.1328   54.5611   83.0241 O.3   14141  HOH14141    0.0000
  14189 O          74.5673   12.0906   28.0622 O.3   14142  HOH14142    0.0000
  14190 O          83.0241   80.9534   56.5251 O.3   14143  HOH14143    0.0000
  14191 O          28.0622   36.5189   10.1266 O.3   14144  HOH14144    0.0000
  14192 O          38.5896   74.5673   54.5611 O.3   14145  HOH14145    0.0000
  14193 O          72.4967   30.1328   12.0906 O.3   14146  HOH14146    0.0000
  14194 O          60.8068   78.7424   52.3501 O.3   14147  HOH14147    0.0000
  14195 O           5.8449   32.3439    7.9156 O.3   14148  HOH14148    0.0000
  14196 O          16.3723   76.7784   58.7362 O.3   14149  HOH14149    0.0000
  14197 O          50.2794   34.3079   14.3017 O.3   14150  HOH14150    0.0000
  14198 O          78.7424   14.3017    5.8449 O.3   14151  HOH14151    0.0000
  14199 O          32.3439   58.7362   60.8068 O.3   14152  HOH14152    0.0000
  14200 O          76.7784    7.9156   50.2794 O.3   14153  HOH14153    0.0000
  14201 O          34.3079   52.3501   16.3723 O.3   14154  HOH14154    0.0000
  14202 O          14.3017   60.8068   76.7784 O.3   14155  HOH14155    0.0000
  14203 O          58.7362    5.8449   34.3079 O.3   14156  HOH14156    0.0000
  14204 O           7.9156   16.3723   78.7424 O.3   14157  HOH14157    0.0000
  14205 O          52.3501   50.2794   32.3439 O.3   14158  HOH14158    0.0000
  14206 O          76.7784   50.2794    7.9156 O.3   14159  HOH14159    0.0000
  14207 O          34.3079   16.3723   52.3501 O.3   14160  HOH14160    0.0000
  14208 O          78.7424    5.8449   14.3017 O.3   14161  HOH14161    0.0000
  14209 O          32.3439   60.8068   58.7362 O.3   14162  HOH14162    0.0000
  14210 O          52.3501   32.3439   50.2794 O.3   14163  HOH14163    0.0000
  14211 O           7.9156   78.7424   16.3723 O.3   14164  HOH14164    0.0000
  14212 O          58.7362   34.3079    5.8449 O.3   14165  HOH14165    0.0000
  14213 O          14.3017   76.7784   60.8068 O.3   14166  HOH14166    0.0000
  14214 O           5.8449    7.9156   32.3439 O.3   14167  HOH14167    0.0000
  14215 O          60.8068   52.3501   78.7424 O.3   14168  HOH14168    0.0000
  14216 O          50.2794   14.3017   34.3079 O.3   14169  HOH14169    0.0000
  14217 O          16.3723   58.7362   76.7784 O.3   14170  HOH14170    0.0000
  14218 O          28.0622   10.1266   36.5189 O.3   14171  HOH14171    0.0000
  14219 O          83.0241   56.5251   80.9534 O.3   14172  HOH14172    0.0000
  14220 O          72.4967   12.0906   30.1328 O.3   14173  HOH14173    0.0000
  14221 O          38.5896   54.5611   74.5673 O.3   14174  HOH14174    0.0000
  14222 O          10.1266   74.5673   83.0241 O.3   14175  HOH14175    0.0000
  14223 O          56.5251   30.1328   28.0622 O.3   14176  HOH14176    0.0000
  14224 O          12.0906   80.9534   38.5896 O.3   14177  HOH14177    0.0000
  14225 O          54.5611   36.5189   72.4967 O.3   14178  HOH14178    0.0000
  14226 O          74.5673   28.0622   12.0906 O.3   14179  HOH14179    0.0000
  14227 O          30.1328   83.0241   54.5611 O.3   14180  HOH14180    0.0000
  14228 O          80.9534   72.4967   10.1266 O.3   14181  HOH14181    0.0000
  14229 O          36.5189   38.5896   56.5251 O.3   14182  HOH14182    0.0000
  14230 O          56.5251   83.0241   80.9534 O.3   14183  HOH14183    0.0000
  14231 O          10.1266   28.0622   36.5189 O.3   14184  HOH14184    0.0000
  14232 O          54.5611   38.5896   74.5673 O.3   14185  HOH14185    0.0000
  14233 O          12.0906   72.4967   30.1328 O.3   14186  HOH14186    0.0000
  14234 O          80.9534   12.0906   38.5896 O.3   14187  HOH14187    0.0000
  14235 O          36.5189   54.5611   72.4967 O.3   14188  HOH14188    0.0000
  14236 O          74.5673   10.1266   83.0241 O.3   14189  HOH14189    0.0000
  14237 O          30.1328   56.5251   28.0622 O.3   14190  HOH14190    0.0000
  14238 O          38.5896   36.5189   56.5251 O.3   14191  HOH14191    0.0000
  14239 O          72.4967   80.9534   10.1266 O.3   14192  HOH14192    0.0000
  14240 O          83.0241   30.1328   54.5611 O.3   14193  HOH14193    0.0000
  14241 O          28.0622   74.5673   12.0906 O.3   14194  HOH14194    0.0000
  14242 O          16.3723   34.3079   52.3501 O.3   14195  HOH14195    0.0000
  14243 O          50.2794   76.7784    7.9156 O.3   14196  HOH14196    0.0000
  14244 O          60.8068   32.3439   58.7362 O.3   14197  HOH14197    0.0000
  14245 O           5.8449   78.7424   14.3017 O.3   14198  HOH14198    0.0000
  14246 O          34.3079   58.7362    5.8449 O.3   14199  HOH14199    0.0000
  14247 O          76.7784   14.3017   60.8068 O.3   14200  HOH14200    0.0000
  14248 O          32.3439   52.3501   50.2794 O.3   14201  HOH14201    0.0000
  14249 O          78.7424    7.9156   16.3723 O.3   14202  HOH14202    0.0000
  14250 O          58.7362   16.3723   76.7784 O.3   14203  HOH14203    0.0000
  14251 O          14.3017   50.2794   34.3079 O.3   14204  HOH14204    0.0000
  14252 O          52.3501   60.8068   78.7424 O.3   14205  HOH14205    0.0000
  14253 O           7.9156    5.8449   32.3439 O.3   14206  HOH14206    0.0000
  14254 O          32.3439    5.8449    7.9156 O.3   14207  HOH14207    0.0000
  14255 O          78.7424   60.8068   52.3501 O.3   14208  HOH14208    0.0000
  14256 O          34.3079   50.2794   14.3017 O.3   14209  HOH14209    0.0000
  14257 O          76.7784   16.3723   58.7362 O.3   14210  HOH14210    0.0000
  14258 O           7.9156   76.7784   50.2794 O.3   14211  HOH14211    0.0000
  14259 O          52.3501   34.3079   16.3723 O.3   14212  HOH14212    0.0000
  14260 O          14.3017   78.7424    5.8449 O.3   14213  HOH14213    0.0000
  14261 O          58.7362   32.3439   60.8068 O.3   14214  HOH14214    0.0000
  14262 O          50.2794   52.3501   32.3439 O.3   14215  HOH14215    0.0000
  14263 O          16.3723    7.9156   78.7424 O.3   14216  HOH14216    0.0000
  14264 O           5.8449   58.7362   34.3079 O.3   14217  HOH14217    0.0000
  14265 O          60.8068   14.3017   76.7784 O.3   14218  HOH14218    0.0000
  14266 O          72.4967   54.5611   36.5189 O.3   14219  HOH14219    0.0000
  14267 O          38.5896   12.0906   80.9534 O.3   14220  HOH14220    0.0000
  14268 O          28.0622   56.5251   30.1328 O.3   14221  HOH14221    0.0000
  14269 O          83.0241   10.1266   74.5673 O.3   14222  HOH14222    0.0000
  14270 O          54.5611   30.1328   83.0241 O.3   14223  HOH14223    0.0000
  14271 O          12.0906   74.5673   28.0622 O.3   14224  HOH14224    0.0000
  14272 O          56.5251   36.5189   38.5896 O.3   14225  HOH14225    0.0000
  14273 O          10.1266   80.9534   72.4967 O.3   14226  HOH14226    0.0000
  14274 O          30.1328   72.4967   12.0906 O.3   14227  HOH14227    0.0000
  14275 O          74.5673   38.5896   54.5611 O.3   14228  HOH14228    0.0000
  14276 O          36.5189   28.0622   10.1266 O.3   14229  HOH14229    0.0000
  14277 O          80.9534   83.0241   56.5251 O.3   14230  HOH14230    0.0000
  14278 O          56.5251   38.5896   36.5189 O.3   14231  HOH14231    0.0000
  14279 O          10.1266   72.4967   80.9534 O.3   14232  HOH14232    0.0000
  14280 O          54.5611   83.0241   30.1328 O.3   14233  HOH14233    0.0000
  14281 O          12.0906   28.0622   74.5673 O.3   14234  HOH14234    0.0000
  14282 O          80.9534   56.5251   83.0241 O.3   14235  HOH14235    0.0000
  14283 O          36.5189   10.1266   28.0622 O.3   14236  HOH14236    0.0000
  14284 O          74.5673   54.5611   38.5896 O.3   14237  HOH14237    0.0000
  14285 O          30.1328   12.0906   72.4967 O.3   14238  HOH14238    0.0000
  14286 O          38.5896   80.9534   12.0906 O.3   14239  HOH14239    0.0000
  14287 O          72.4967   36.5189   54.5611 O.3   14240  HOH14240    0.0000
  14288 O          83.0241   74.5673   10.1266 O.3   14241  HOH14241    0.0000
  14289 O          28.0622   30.1328   56.5251 O.3   14242  HOH14242    0.0000
  14290 O          16.3723   78.7424    7.9156 O.3   14243  HOH14243    0.0000
  14291 O          50.2794   32.3439   52.3501 O.3   14244  HOH14244    0.0000
  14292 O          60.8068   76.7784   14.3017 O.3   14245  HOH14245    0.0000
  14293 O           5.8449   34.3079   58.7362 O.3   14246  HOH14246    0.0000
  14294 O          34.3079   14.3017   50.2794 O.3   14247  HOH14247    0.0000
  14295 O          76.7784   58.7362   16.3723 O.3   14248  HOH14248    0.0000
  14296 O          32.3439    7.9156    5.8449 O.3   14249  HOH14249    0.0000
  14297 O          78.7424   52.3501   60.8068 O.3   14250  HOH14250    0.0000
  14298 O          58.7362   60.8068   32.3439 O.3   14251  HOH14251    0.0000
  14299 O          14.3017    5.8449   78.7424 O.3   14252  HOH14252    0.0000
  14300 O          52.3501   16.3723   34.3079 O.3   14253  HOH14253    0.0000
  14301 O           7.9156   50.2794   76.7784 O.3   14254  HOH14254    0.0000
  14302 O          32.3439   50.2794   52.3501 O.3   14255  HOH14255    0.0000
  14303 O          78.7424   16.3723    7.9156 O.3   14256  HOH14256    0.0000
  14304 O          34.3079    5.8449   58.7362 O.3   14257  HOH14257    0.0000
  14305 O          76.7784   60.8068   14.3017 O.3   14258  HOH14258    0.0000
  14306 O           7.9156   32.3439    5.8449 O.3   14259  HOH14259    0.0000
  14307 O          52.3501   78.7424   60.8068 O.3   14260  HOH14260    0.0000
  14308 O          14.3017   34.3079   50.2794 O.3   14261  HOH14261    0.0000
  14309 O          58.7362   76.7784   16.3723 O.3   14262  HOH14262    0.0000
  14310 O          50.2794    7.9156   76.7784 O.3   14263  HOH14263    0.0000
  14311 O          16.3723   52.3501   34.3079 O.3   14264  HOH14264    0.0000
  14312 O           5.8449   14.3017   78.7424 O.3   14265  HOH14265    0.0000
  14313 O          60.8068   58.7362   32.3439 O.3   14266  HOH14266    0.0000
  14314 O          72.4967   10.1266   80.9534 O.3   14267  HOH14267    0.0000
  14315 O          38.5896   56.5251   36.5189 O.3   14268  HOH14268    0.0000
  14316 O          28.0622   12.0906   74.5673 O.3   14269  HOH14269    0.0000
  14317 O          83.0241   54.5611   30.1328 O.3   14270  HOH14270    0.0000
  14318 O          54.5611   74.5673   38.5896 O.3   14271  HOH14271    0.0000
  14319 O          12.0906   30.1328   72.4967 O.3   14272  HOH14272    0.0000
  14320 O          56.5251   80.9534   83.0241 O.3   14273  HOH14273    0.0000
  14321 O          10.1266   36.5189   28.0622 O.3   14274  HOH14274    0.0000
  14322 O          30.1328   28.0622   56.5251 O.3   14275  HOH14275    0.0000
  14323 O          74.5673   83.0241   10.1266 O.3   14276  HOH14276    0.0000
  14324 O          36.5189   72.4967   54.5611 O.3   14277  HOH14277    0.0000
  14325 O          80.9534   38.5896   12.0906 O.3   14278  HOH14278    0.0000
  14326 O          59.1316   76.7250    0.0000 O.3   14279  HOH14279    0.0000
  14327 O          14.6972   78.7957   22.2172 O.3   14280  HOH14280    0.0000
  14328 O          51.9546   32.2905   66.6517 O.3   14281  HOH14281    0.0000
  14329 O          44.4345    7.5201   34.3612 O.3   14282  HOH14282    0.0000
  14330 O           0.0000   59.1316   76.7250 O.3   14283  HOH14283    0.0000
  14331 O          22.2172   14.6972   78.7957 O.3   14284  HOH14284    0.0000
  14332 O          66.6517   51.9546   32.2905 O.3   14285  HOH14285    0.0000
  14333 O          34.3612   44.4345    7.5201 O.3   14286  HOH14286    0.0000
  14334 O          76.7250    0.0000   59.1316 O.3   14287  HOH14287    0.0000
  14335 O          78.7957   22.2172   14.6972 O.3   14288  HOH14288    0.0000
  14336 O          32.2905   66.6517   51.9546 O.3   14289  HOH14289    0.0000
  14337 O          12.1439   29.7373    0.0000 O.3   14290  HOH14290    0.0000
  14338 O          54.5078   81.3489   44.4345 O.3   14291  HOH14291    0.0000
  14339 O          56.5784   36.9144   22.2172 O.3   14292  HOH14292    0.0000
  14340 O          10.0733   74.1718   66.6517 O.3   14293  HOH14293    0.0000
  14341 O          74.1718   66.6517   10.0733 O.3   14294  HOH14294    0.0000
  14342 O          36.9144   22.2172   56.5784 O.3   14295  HOH14295    0.0000
  14343 O          81.3489   44.4345   54.5078 O.3   14296  HOH14296    0.0000
  14344 O          29.7373    0.0000   12.1439 O.3   14297  HOH14297    0.0000
  14345 O          22.2172   56.5784   36.9144 O.3   14298  HOH14298    0.0000
  14346 O          66.6517   10.0733   74.1718 O.3   14299  HOH14299    0.0000
  14347 O           0.0000   12.1439   29.7373 O.3   14300  HOH14300    0.0000
  14348 O          44.4345   54.5078   81.3489 O.3   14301  HOH14301    0.0000
  14349 O          81.3489   54.5078   44.4345 O.3   14302  HOH14302    0.0000
  14350 O          29.7373   12.1439    0.0000 O.3   14303  HOH14303    0.0000
  14351 O          74.1718   10.0733   66.6517 O.3   14304  HOH14304    0.0000
  14352 O          36.9144   56.5784   22.2172 O.3   14305  HOH14305    0.0000
  14353 O          44.4345   81.3489   54.5078 O.3   14306  HOH14306    0.0000
  14354 O           0.0000   29.7373   12.1439 O.3   14307  HOH14307    0.0000
  14355 O          66.6517   74.1718   10.0733 O.3   14308  HOH14308    0.0000
  14356 O          22.2172   36.9144   56.5784 O.3   14309  HOH14309    0.0000
  14357 O          54.5078   44.4345   81.3489 O.3   14310  HOH14310    0.0000
  14358 O          12.1439    0.0000   29.7373 O.3   14311  HOH14311    0.0000
  14359 O          10.0733   66.6517   74.1718 O.3   14312  HOH14312    0.0000
  14360 O          56.5784   22.2172   36.9144 O.3   14313  HOH14313    0.0000
  14361 O          76.7250   59.1316    0.0000 O.3   14314  HOH14314    0.0000
  14362 O          34.3612    7.5201   44.4345 O.3   14315  HOH14315    0.0000
  14363 O          32.2905   51.9546   66.6517 O.3   14316  HOH14316    0.0000
  14364 O          78.7957   14.6972   22.2172 O.3   14317  HOH14317    0.0000
  14365 O          14.6972   22.2172   78.7957 O.3   14318  HOH14318    0.0000
  14366 O          51.9546   66.6517   32.2905 O.3   14319  HOH14319    0.0000
  14367 O           7.5201   44.4345   34.3612 O.3   14320  HOH14320    0.0000
  14368 O          59.1316    0.0000   76.7250 O.3   14321  HOH14321    0.0000
  14369 O          66.6517   32.2905   51.9546 O.3   14322  HOH14322    0.0000
  14370 O          22.2172   78.7957   14.6972 O.3   14323  HOH14323    0.0000
  14371 O           0.0000   76.7250   59.1316 O.3   14324  HOH14324    0.0000
  14372 O          44.4345   34.3612    7.5201 O.3   14325  HOH14325    0.0000
  14373 O           7.5201   78.7957    0.0000 O.3   14326  HOH14326    0.0000
  14374 O          59.1316   32.2905   44.4345 O.3   14327  HOH14327    0.0000
  14375 O          14.6972   34.3612   66.6517 O.3   14328  HOH14328    0.0000
  14376 O          51.9546   76.7250   22.2172 O.3   14329  HOH14329    0.0000
  14377 O          44.4345   51.9546   78.7957 O.3   14330  HOH14330    0.0000
  14378 O           0.0000   14.6972   32.2905 O.3   14331  HOH14331    0.0000
  14379 O          22.2172   59.1316   34.3612 O.3   14332  HOH14332    0.0000
  14380 O          66.6517    7.5201   76.7250 O.3   14333  HOH14333    0.0000
  14381 O          34.3612    0.0000   51.9546 O.3   14334  HOH14334    0.0000
  14382 O          76.7250   44.4345   14.6972 O.3   14335  HOH14335    0.0000
  14383 O          78.7957   66.6517   59.1316 O.3   14336  HOH14336    0.0000
  14384 O          32.2905   22.2172    7.5201 O.3   14337  HOH14337    0.0000
  14385 O          12.1439   74.1718   44.4345 O.3   14338  HOH14338    0.0000
  14386 O          54.5078   36.9144    0.0000 O.3   14339  HOH14339    0.0000
  14387 O          56.5784   81.3489   66.6517 O.3   14340  HOH14340    0.0000
  14388 O          10.0733   29.7373   22.2172 O.3   14341  HOH14341    0.0000
  14389 O          74.1718   22.2172   54.5078 O.3   14342  HOH14342    0.0000
  14390 O          36.9144   66.6517   12.1439 O.3   14343  HOH14343    0.0000
  14391 O          81.3489    0.0000   10.0733 O.3   14344  HOH14344    0.0000
  14392 O          29.7373   44.4345   56.5784 O.3   14345  HOH14345    0.0000
  14393 O          22.2172   12.1439   81.3489 O.3   14346  HOH14346    0.0000
  14394 O          66.6517   54.5078   29.7373 O.3   14347  HOH14347    0.0000
  14395 O           0.0000   56.5784   74.1718 O.3   14348  HOH14348    0.0000
  14396 O          44.4345   10.0733   36.9144 O.3   14349  HOH14349    0.0000
  14397 O          81.3489   10.0733    0.0000 O.3   14350  HOH14350    0.0000
  14398 O          29.7373   56.5784   44.4345 O.3   14351  HOH14351    0.0000
  14399 O          74.1718   54.5078   22.2172 O.3   14352  HOH14352    0.0000
  14400 O          36.9144   12.1439   66.6517 O.3   14353  HOH14353    0.0000
  14401 O          44.4345   36.9144   10.0733 O.3   14354  HOH14354    0.0000
  14402 O           0.0000   74.1718   56.5784 O.3   14355  HOH14355    0.0000
  14403 O          66.6517   29.7373   54.5078 O.3   14356  HOH14356    0.0000
  14404 O          22.2172   81.3489   12.1439 O.3   14357  HOH14357    0.0000
  14405 O          54.5078    0.0000   36.9144 O.3   14358  HOH14358    0.0000
  14406 O          12.1439   44.4345   74.1718 O.3   14359  HOH14359    0.0000
  14407 O          10.0733   22.2172   29.7373 O.3   14360  HOH14360    0.0000
  14408 O          56.5784   66.6517   81.3489 O.3   14361  HOH14361    0.0000
  14409 O          76.7250   14.6972   44.4345 O.3   14362  HOH14362    0.0000
  14410 O          34.3612   51.9546    0.0000 O.3   14363  HOH14363    0.0000
  14411 O          32.2905    7.5201   22.2172 O.3   14364  HOH14364    0.0000
  14412 O          78.7957   59.1316   66.6517 O.3   14365  HOH14365    0.0000
  14413 O          14.6972   66.6517   34.3612 O.3   14366  HOH14366    0.0000
  14414 O          51.9546   22.2172   76.7250 O.3   14367  HOH14367    0.0000
  14415 O           7.5201    0.0000   78.7957 O.3   14368  HOH14368    0.0000
  14416 O          59.1316   44.4345   32.2905 O.3   14369  HOH14369    0.0000
  14417 O          66.6517   76.7250    7.5201 O.3   14370  HOH14370    0.0000
  14418 O          22.2172   34.3612   59.1316 O.3   14371  HOH14371    0.0000
  14419 O           0.0000   32.2905   14.6972 O.3   14372  HOH14372    0.0000
  14420 O          44.4345   78.7957   51.9546 O.3   14373  HOH14373    0.0000
  14421 O          51.9546   34.3612    0.0000 O.3   14374  HOH14374    0.0000
  14422 O          14.6972   76.7250   44.4345 O.3   14375  HOH14375    0.0000
  14423 O          59.1316   78.7957   66.6517 O.3   14376  HOH14376    0.0000
  14424 O           7.5201   32.2905   22.2172 O.3   14377  HOH14377    0.0000
  14425 O           0.0000    7.5201   78.7957 O.3   14378  HOH14378    0.0000
  14426 O          44.4345   59.1316   32.2905 O.3   14379  HOH14379    0.0000
  14427 O          66.6517   14.6972   34.3612 O.3   14380  HOH14380    0.0000
  14428 O          22.2172   51.9546   76.7250 O.3   14381  HOH14381    0.0000
  14429 O          78.7957   44.4345   51.9546 O.3   14382  HOH14382    0.0000
  14430 O          32.2905    0.0000   14.6972 O.3   14383  HOH14383    0.0000
  14431 O          34.3612   22.2172   59.1316 O.3   14384  HOH14384    0.0000
  14432 O          76.7250   66.6517    7.5201 O.3   14385  HOH14385    0.0000
  14433 O          56.5784   29.7373   44.4345 O.3   14386  HOH14386    0.0000
  14434 O          10.0733   81.3489    0.0000 O.3   14387  HOH14387    0.0000
  14435 O          12.1439   36.9144   66.6517 O.3   14388  HOH14388    0.0000
  14436 O          54.5078   74.1718   22.2172 O.3   14389  HOH14389    0.0000
  14437 O          29.7373   66.6517   54.5078 O.3   14390  HOH14390    0.0000
  14438 O          81.3489   22.2172   12.1439 O.3   14391  HOH14391    0.0000
  14439 O          36.9144   44.4345   10.0733 O.3   14392  HOH14392    0.0000
  14440 O          74.1718    0.0000   56.5784 O.3   14393  HOH14393    0.0000
  14441 O          66.6517   56.5784   81.3489 O.3   14394  HOH14394    0.0000
  14442 O          22.2172   10.0733   29.7373 O.3   14395  HOH14395    0.0000
  14443 O          44.4345   12.1439   74.1718 O.3   14396  HOH14396    0.0000
  14444 O           0.0000   54.5078   36.9144 O.3   14397  HOH14397    0.0000
  14445 O          36.9144   54.5078    0.0000 O.3   14398  HOH14398    0.0000
  14446 O          74.1718   12.1439   44.4345 O.3   14399  HOH14399    0.0000
  14447 O          29.7373   10.0733   22.2172 O.3   14400  HOH14400    0.0000
  14448 O          81.3489   56.5784   66.6517 O.3   14401  HOH14401    0.0000
  14449 O           0.0000   81.3489   10.0733 O.3   14402  HOH14402    0.0000
  14450 O          44.4345   29.7373   56.5784 O.3   14403  HOH14403    0.0000
  14451 O          22.2172   74.1718   54.5078 O.3   14404  HOH14404    0.0000
  14452 O          66.6517   36.9144   12.1439 O.3   14405  HOH14405    0.0000
  14453 O          10.0733   44.4345   36.9144 O.3   14406  HOH14406    0.0000
  14454 O          56.5784    0.0000   74.1718 O.3   14407  HOH14407    0.0000
  14455 O          54.5078   66.6517   29.7373 O.3   14408  HOH14408    0.0000
  14456 O          12.1439   22.2172   81.3489 O.3   14409  HOH14409    0.0000
  14457 O          32.2905   59.1316   44.4345 O.3   14410  HOH14410    0.0000
  14458 O          78.7957    7.5201    0.0000 O.3   14411  HOH14411    0.0000
  14459 O          76.7250   51.9546   22.2172 O.3   14412  HOH14412    0.0000
  14460 O          34.3612   14.6972   66.6517 O.3   14413  HOH14413    0.0000
  14461 O          59.1316   22.2172   34.3612 O.3   14414  HOH14414    0.0000
  14462 O           7.5201   66.6517   76.7250 O.3   14415  HOH14415    0.0000
  14463 O          51.9546   44.4345   78.7957 O.3   14416  HOH14416    0.0000
  14464 O          14.6972    0.0000   32.2905 O.3   14417  HOH14417    0.0000
  14465 O          22.2172   32.2905    7.5201 O.3   14418  HOH14418    0.0000
  14466 O          66.6517   78.7957   59.1316 O.3   14419  HOH14419    0.0000
  14467 O          44.4345   76.7250   14.6972 O.3   14420  HOH14420    0.0000
  14468 O           0.0000   34.3612   51.9546 O.3   14421  HOH14421    0.0000
  14469 O          51.9546   78.7957   44.4345 O.3   14422  HOH14422    0.0000
  14470 O          14.6972   32.2905    0.0000 O.3   14423  HOH14423    0.0000
  14471 O          59.1316   34.3612   22.2172 O.3   14424  HOH14424    0.0000
  14472 O           7.5201   76.7250   66.6517 O.3   14425  HOH14425    0.0000
  14473 O           0.0000   51.9546   34.3612 O.3   14426  HOH14426    0.0000
  14474 O          44.4345   14.6972   76.7250 O.3   14427  HOH14427    0.0000
  14475 O          66.6517   59.1316   78.7957 O.3   14428  HOH14428    0.0000
  14476 O          22.2172    7.5201   32.2905 O.3   14429  HOH14429    0.0000
  14477 O          78.7957    0.0000    7.5201 O.3   14430  HOH14430    0.0000
  14478 O          32.2905   44.4345   59.1316 O.3   14431  HOH14431    0.0000
  14479 O          34.3612   66.6517   14.6972 O.3   14432  HOH14432    0.0000
  14480 O          76.7250   22.2172   51.9546 O.3   14433  HOH14433    0.0000
  14481 O          56.5784   74.1718    0.0000 O.3   14434  HOH14434    0.0000
  14482 O          10.0733   36.9144   44.4345 O.3   14435  HOH14435    0.0000
  14483 O          12.1439   81.3489   22.2172 O.3   14436  HOH14436    0.0000
  14484 O          54.5078   29.7373   66.6517 O.3   14437  HOH14437    0.0000
  14485 O          29.7373   22.2172   10.0733 O.3   14438  HOH14438    0.0000
  14486 O          81.3489   66.6517   56.5784 O.3   14439  HOH14439    0.0000
  14487 O          36.9144    0.0000   54.5078 O.3   14440  HOH14440    0.0000
  14488 O          74.1718   44.4345   12.1439 O.3   14441  HOH14441    0.0000
  14489 O          66.6517   12.1439   36.9144 O.3   14442  HOH14442    0.0000
  14490 O          22.2172   54.5078   74.1718 O.3   14443  HOH14443    0.0000
  14491 O          44.4345   56.5784   29.7373 O.3   14444  HOH14444    0.0000
  14492 O           0.0000   10.0733   81.3489 O.3   14445  HOH14445    0.0000
  14493 O          36.9144   10.0733   44.4345 O.3   14446  HOH14446    0.0000
  14494 O          74.1718   56.5784    0.0000 O.3   14447  HOH14447    0.0000
  14495 O          29.7373   54.5078   66.6517 O.3   14448  HOH14448    0.0000
  14496 O          81.3489   12.1439   22.2172 O.3   14449  HOH14449    0.0000
  14497 O           0.0000   36.9144   54.5078 O.3   14450  HOH14450    0.0000
  14498 O          44.4345   74.1718   12.1439 O.3   14451  HOH14451    0.0000
  14499 O          22.2172   29.7373   10.0733 O.3   14452  HOH14452    0.0000
  14500 O          66.6517   81.3489   56.5784 O.3   14453  HOH14453    0.0000
  14501 O          10.0733    0.0000   81.3489 O.3   14454  HOH14454    0.0000
  14502 O          56.5784   44.4345   29.7373 O.3   14455  HOH14455    0.0000
  14503 O          54.5078   22.2172   74.1718 O.3   14456  HOH14456    0.0000
  14504 O          12.1439   66.6517   36.9144 O.3   14457  HOH14457    0.0000
  14505 O          32.2905   14.6972    0.0000 O.3   14458  HOH14458    0.0000
  14506 O          78.7957   51.9546   44.4345 O.3   14459  HOH14459    0.0000
  14507 O          76.7250    7.5201   66.6517 O.3   14460  HOH14460    0.0000
  14508 O          34.3612   59.1316   22.2172 O.3   14461  HOH14461    0.0000
  14509 O          59.1316   66.6517   78.7957 O.3   14462  HOH14462    0.0000
  14510 O           7.5201   22.2172   32.2905 O.3   14463  HOH14463    0.0000
  14511 O          51.9546    0.0000   34.3612 O.3   14464  HOH14464    0.0000
  14512 O          14.6972   44.4345   76.7250 O.3   14465  HOH14465    0.0000
  14513 O          22.2172   76.7250   51.9546 O.3   14466  HOH14466    0.0000
  14514 O          66.6517   34.3612   14.6972 O.3   14467  HOH14467    0.0000
  14515 O          44.4345   32.2905   59.1316 O.3   14468  HOH14468    0.0000
  14516 O           0.0000   78.7957    7.5201 O.3   14469  HOH14469    0.0000
  14517 O          46.4012   78.0696   39.9679 O.3   14470  HOH14470    0.0000
  14518 O           1.9667   77.4511   71.1183 O.3   14471  HOH14471    0.0000
  14519 O          64.6851   33.6351   26.6838 O.3   14472  HOH14472    0.0000
  14520 O          84.4024   20.2506   33.0166 O.3   14473  HOH14473    0.0000
  14521 O          39.9679   46.4012   78.0696 O.3   14474  HOH14474    0.0000
  14522 O          71.1183    1.9667   77.4511 O.3   14475  HOH14475    0.0000
  14523 O          26.6838   64.6851   33.6351 O.3   14476  HOH14476    0.0000
  14524 O          33.0166   84.4024   20.2506 O.3   14477  HOH14477    0.0000
  14525 O          78.0696   39.9679   46.4012 O.3   14478  HOH14478    0.0000
  14526 O          77.4511   71.1183    1.9667 O.3   14479  HOH14479    0.0000
  14527 O          33.6351   26.6838   64.6851 O.3   14480  HOH14480    0.0000
  14528 O          10.7994   42.4678   48.9011 O.3   14481  HOH14481    0.0000
  14529 O          55.8524   68.6184    4.4666 O.3   14482  HOH14482    0.0000
  14530 O          55.2339   24.1839   62.1852 O.3   14483  HOH14483    0.0000
  14531 O          11.4179   86.9023   17.7507 O.3   14484  HOH14484    0.0000
  14532 O          86.9023   17.7507   11.4179 O.3   14485  HOH14485    0.0000
  14533 O          24.1839   62.1852   55.2339 O.3   14486  HOH14486    0.0000
  14534 O          68.6184    4.4666   55.8524 O.3   14487  HOH14487    0.0000
  14535 O          42.4678   48.9011   10.7994 O.3   14488  HOH14488    0.0000
  14536 O          62.1852   55.2339   24.1839 O.3   14489  HOH14489    0.0000
  14537 O          17.7507   11.4179   86.9023 O.3   14490  HOH14490    0.0000
  14538 O          48.9011   10.7994   42.4678 O.3   14491  HOH14491    0.0000
  14539 O           4.4666   55.8524   68.6184 O.3   14492  HOH14492    0.0000
  14540 O          68.6184   55.8524    4.4666 O.3   14493  HOH14493    0.0000
  14541 O          42.4678   10.7994   48.9011 O.3   14494  HOH14494    0.0000
  14542 O          86.9023   11.4179   17.7507 O.3   14495  HOH14495    0.0000
  14543 O          24.1839   55.2339   62.1852 O.3   14496  HOH14496    0.0000
  14544 O           4.4666   68.6184   55.8524 O.3   14497  HOH14497    0.0000
  14545 O          48.9011   42.4678   10.7994 O.3   14498  HOH14498    0.0000
  14546 O          17.7507   86.9023   11.4179 O.3   14499  HOH14499    0.0000
  14547 O          62.1852   24.1839   55.2339 O.3   14500  HOH14500    0.0000
  14548 O          55.8524    4.4666   68.6184 O.3   14501  HOH14501    0.0000
  14549 O          10.7994   48.9011   42.4678 O.3   14502  HOH14502    0.0000
  14550 O          11.4179   17.7507   86.9023 O.3   14503  HOH14503    0.0000
  14551 O          55.2339   62.1852   24.1839 O.3   14504  HOH14504    0.0000
  14552 O          78.0696   46.4012   39.9679 O.3   14505  HOH14505    0.0000
  14553 O          33.0166   20.2506   84.4024 O.3   14506  HOH14506    0.0000
  14554 O          33.6351   64.6851   26.6838 O.3   14507  HOH14507    0.0000
  14555 O          77.4511    1.9667   71.1183 O.3   14508  HOH14508    0.0000
  14556 O           1.9667   71.1183   77.4511 O.3   14509  HOH14509    0.0000
  14557 O          64.6851   26.6838   33.6351 O.3   14510  HOH14510    0.0000
  14558 O          20.2506   84.4024   33.0166 O.3   14511  HOH14511    0.0000
  14559 O          46.4012   39.9679   78.0696 O.3   14512  HOH14512    0.0000
  14560 O          26.6838   33.6351   64.6851 O.3   14513  HOH14513    0.0000
  14561 O          71.1183   77.4511    1.9667 O.3   14514  HOH14514    0.0000
  14562 O          39.9679   78.0696   46.4012 O.3   14515  HOH14515    0.0000
  14563 O          84.4024   33.0166   20.2506 O.3   14516  HOH14516    0.0000
  14564 O          20.2506   77.4511   39.9679 O.3   14517  HOH14517    0.0000
  14565 O          46.4012   33.6351   84.4024 O.3   14518  HOH14518    0.0000
  14566 O           1.9667   33.0166   26.6838 O.3   14519  HOH14519    0.0000
  14567 O          64.6851   78.0696   71.1183 O.3   14520  HOH14520    0.0000
  14568 O          84.4024   64.6851   77.4511 O.3   14521  HOH14521    0.0000
  14569 O          39.9679    1.9667   33.6351 O.3   14522  HOH14522    0.0000
  14570 O          71.1183   46.4012   33.0166 O.3   14523  HOH14523    0.0000
  14571 O          26.6838   20.2506   78.0696 O.3   14524  HOH14524    0.0000
  14572 O          33.0166   39.9679   64.6851 O.3   14525  HOH14525    0.0000
  14573 O          78.0696   84.4024    1.9667 O.3   14526  HOH14526    0.0000
  14574 O          77.4511   26.6838   46.4012 O.3   14527  HOH14527    0.0000
  14575 O          33.6351   71.1183   20.2506 O.3   14528  HOH14528    0.0000
  14576 O          10.7994   86.9023    4.4666 O.3   14529  HOH14529    0.0000
  14577 O          55.8524   24.1839   48.9011 O.3   14530  HOH14530    0.0000
  14578 O          55.2339   68.6184   17.7507 O.3   14531  HOH14531    0.0000
  14579 O          11.4179   42.4678   62.1852 O.3   14532  HOH14532    0.0000
  14580 O          86.9023   62.1852   55.8524 O.3   14533  HOH14533    0.0000
  14581 O          24.1839   17.7507   10.7994 O.3   14534  HOH14534    0.0000
  14582 O          68.6184   48.9011   11.4179 O.3   14535  HOH14535    0.0000
  14583 O          42.4678    4.4666   55.2339 O.3   14536  HOH14536    0.0000
  14584 O          62.1852   10.7994   68.6184 O.3   14537  HOH14537    0.0000
  14585 O          17.7507   55.8524   42.4678 O.3   14538  HOH14538    0.0000
  14586 O          48.9011   55.2339   86.9023 O.3   14539  HOH14539    0.0000
  14587 O           4.4666   11.4179   24.1839 O.3   14540  HOH14540    0.0000
  14588 O          68.6184   11.4179   48.9011 O.3   14541  HOH14541    0.0000
  14589 O          42.4678   55.2339    4.4666 O.3   14542  HOH14542    0.0000
  14590 O          86.9023   55.8524   62.1852 O.3   14543  HOH14543    0.0000
  14591 O          24.1839   10.7994   17.7507 O.3   14544  HOH14544    0.0000
  14592 O           4.4666   24.1839   11.4179 O.3   14545  HOH14545    0.0000
  14593 O          48.9011   86.9023   55.2339 O.3   14546  HOH14546    0.0000
  14594 O          17.7507   42.4678   55.8524 O.3   14547  HOH14547    0.0000
  14595 O          62.1852   68.6184   10.7994 O.3   14548  HOH14548    0.0000
  14596 O          55.8524   48.9011   24.1839 O.3   14549  HOH14549    0.0000
  14597 O          10.7994    4.4666   86.9023 O.3   14550  HOH14550    0.0000
  14598 O          11.4179   62.1852   42.4678 O.3   14551  HOH14551    0.0000
  14599 O          55.2339   17.7507   68.6184 O.3   14552  HOH14552    0.0000
  14600 O          78.0696    1.9667   84.4024 O.3   14553  HOH14553    0.0000
  14601 O          33.0166   64.6851   39.9679 O.3   14554  HOH14554    0.0000
  14602 O          33.6351   20.2506   71.1183 O.3   14555  HOH14555    0.0000
  14603 O          77.4511   46.4012   26.6838 O.3   14556  HOH14556    0.0000
  14604 O           1.9667   26.6838   33.0166 O.3   14557  HOH14557    0.0000
  14605 O          64.6851   71.1183   78.0696 O.3   14558  HOH14558    0.0000
  14606 O          20.2506   39.9679   77.4511 O.3   14559  HOH14559    0.0000
  14607 O          46.4012   84.4024   33.6351 O.3   14560  HOH14560    0.0000
  14608 O          26.6838   78.0696   20.2506 O.3   14561  HOH14561    0.0000
  14609 O          71.1183   33.0166   46.4012 O.3   14562  HOH14562    0.0000
  14610 O          39.9679   33.6351    1.9667 O.3   14563  HOH14563    0.0000
  14611 O          84.4024   77.4511   64.6851 O.3   14564  HOH14564    0.0000
  14612 O          64.6851   33.0166   39.9679 O.3   14565  HOH14565    0.0000
  14613 O           1.9667   78.0696   84.4024 O.3   14566  HOH14566    0.0000
  14614 O          46.4012   77.4511   26.6838 O.3   14567  HOH14567    0.0000
  14615 O          20.2506   33.6351   71.1183 O.3   14568  HOH14568    0.0000
  14616 O          39.9679   20.2506   77.4511 O.3   14569  HOH14569    0.0000
  14617 O          84.4024   46.4012   33.6351 O.3   14570  HOH14570    0.0000
  14618 O          26.6838    1.9667   33.0166 O.3   14571  HOH14571    0.0000
  14619 O          71.1183   64.6851   78.0696 O.3   14572  HOH14572    0.0000
  14620 O          77.4511   84.4024   64.6851 O.3   14573  HOH14573    0.0000
  14621 O          33.6351   39.9679    1.9667 O.3   14574  HOH14574    0.0000
  14622 O          33.0166   71.1183   46.4012 O.3   14575  HOH14575    0.0000
  14623 O          78.0696   26.6838   20.2506 O.3   14576  HOH14576    0.0000
  14624 O          55.2339   42.4678    4.4666 O.3   14577  HOH14577    0.0000
  14625 O          11.4179   68.6184   48.9011 O.3   14578  HOH14578    0.0000
  14626 O          10.7994   24.1839   17.7507 O.3   14579  HOH14579    0.0000
  14627 O          55.8524   86.9023   62.1852 O.3   14580  HOH14580    0.0000
  14628 O          42.4678   17.7507   55.8524 O.3   14581  HOH14581    0.0000
  14629 O          68.6184   62.1852   10.7994 O.3   14582  HOH14582    0.0000
  14630 O          24.1839    4.4666   11.4179 O.3   14583  HOH14583    0.0000
  14631 O          86.9023   48.9011   55.2339 O.3   14584  HOH14584    0.0000
  14632 O          17.7507   55.2339   68.6184 O.3   14585  HOH14585    0.0000
  14633 O          62.1852   11.4179   42.4678 O.3   14586  HOH14586    0.0000
  14634 O           4.4666   10.7994   86.9023 O.3   14587  HOH14587    0.0000
  14635 O          48.9011   55.8524   24.1839 O.3   14588  HOH14588    0.0000
  14636 O          24.1839   55.8524   48.9011 O.3   14589  HOH14589    0.0000
  14637 O          86.9023   10.7994    4.4666 O.3   14590  HOH14590    0.0000
  14638 O          42.4678   11.4179   62.1852 O.3   14591  HOH14591    0.0000
  14639 O          68.6184   55.2339   17.7507 O.3   14592  HOH14592    0.0000
  14640 O          48.9011   68.6184   11.4179 O.3   14593  HOH14593    0.0000
  14641 O           4.4666   42.4678   55.2339 O.3   14594  HOH14594    0.0000
  14642 O          62.1852   86.9023   55.8524 O.3   14595  HOH14595    0.0000
  14643 O          17.7507   24.1839   10.7994 O.3   14596  HOH14596    0.0000
  14644 O          11.4179    4.4666   24.1839 O.3   14597  HOH14597    0.0000
  14645 O          55.2339   48.9011   86.9023 O.3   14598  HOH14598    0.0000
  14646 O          55.8524   17.7507   42.4678 O.3   14599  HOH14599    0.0000
  14647 O          10.7994   62.1852   68.6184 O.3   14600  HOH14600    0.0000
  14648 O          33.6351   46.4012   84.4024 O.3   14601  HOH14601    0.0000
  14649 O          77.4511   20.2506   39.9679 O.3   14602  HOH14602    0.0000
  14650 O          78.0696   64.6851   71.1183 O.3   14603  HOH14603    0.0000
  14651 O          33.0166    1.9667   26.6838 O.3   14604  HOH14604    0.0000
  14652 O          46.4012   71.1183   33.0166 O.3   14605  HOH14605    0.0000
  14653 O          20.2506   26.6838   78.0696 O.3   14606  HOH14606    0.0000
  14654 O          64.6851   84.4024   77.4511 O.3   14607  HOH14607    0.0000
  14655 O           1.9667   39.9679   33.6351 O.3   14608  HOH14608    0.0000
  14656 O          71.1183   33.6351   20.2506 O.3   14609  HOH14609    0.0000
  14657 O          26.6838   77.4511   46.4012 O.3   14610  HOH14610    0.0000
  14658 O          84.4024   78.0696    1.9667 O.3   14611  HOH14611    0.0000
  14659 O          39.9679   33.0166   64.6851 O.3   14612  HOH14612    0.0000
  14660 O          64.6851   77.4511   84.4024 O.3   14613  HOH14613    0.0000
  14661 O           1.9667   33.6351   39.9679 O.3   14614  HOH14614    0.0000
  14662 O          46.4012   33.0166   71.1183 O.3   14615  HOH14615    0.0000
  14663 O          20.2506   78.0696   26.6838 O.3   14616  HOH14616    0.0000
  14664 O          39.9679   64.6851   33.0166 O.3   14617  HOH14617    0.0000
  14665 O          84.4024    1.9667   78.0696 O.3   14618  HOH14618    0.0000
  14666 O          26.6838   46.4012   77.4511 O.3   14619  HOH14619    0.0000
  14667 O          71.1183   20.2506   33.6351 O.3   14620  HOH14620    0.0000
  14668 O          77.4511   39.9679   20.2506 O.3   14621  HOH14621    0.0000
  14669 O          33.6351   84.4024   46.4012 O.3   14622  HOH14622    0.0000
  14670 O          33.0166   26.6838    1.9667 O.3   14623  HOH14623    0.0000
  14671 O          78.0696   71.1183   64.6851 O.3   14624  HOH14624    0.0000
  14672 O          55.2339   86.9023   48.9011 O.3   14625  HOH14625    0.0000
  14673 O          11.4179   24.1839    4.4666 O.3   14626  HOH14626    0.0000
  14674 O          10.7994   68.6184   62.1852 O.3   14627  HOH14627    0.0000
  14675 O          55.8524   42.4678   17.7507 O.3   14628  HOH14628    0.0000
  14676 O          42.4678   62.1852   11.4179 O.3   14629  HOH14629    0.0000
  14677 O          68.6184   17.7507   55.2339 O.3   14630  HOH14630    0.0000
  14678 O          24.1839   48.9011   55.8524 O.3   14631  HOH14631    0.0000
  14679 O          86.9023    4.4666   10.7994 O.3   14632  HOH14632    0.0000
  14680 O          17.7507   10.7994   24.1839 O.3   14633  HOH14633    0.0000
  14681 O          62.1852   55.8524   86.9023 O.3   14634  HOH14634    0.0000
  14682 O           4.4666   55.2339   42.4678 O.3   14635  HOH14635    0.0000
  14683 O          48.9011   11.4179   68.6184 O.3   14636  HOH14636    0.0000
  14684 O          24.1839   11.4179    4.4666 O.3   14637  HOH14637    0.0000
  14685 O          86.9023   55.2339   48.9011 O.3   14638  HOH14638    0.0000
  14686 O          42.4678   55.8524   17.7507 O.3   14639  HOH14639    0.0000
  14687 O          68.6184   10.7994   62.1852 O.3   14640  HOH14640    0.0000
  14688 O          48.9011   24.1839   55.8524 O.3   14641  HOH14641    0.0000
  14689 O           4.4666   86.9023   10.7994 O.3   14642  HOH14642    0.0000
  14690 O          62.1852   42.4678   11.4179 O.3   14643  HOH14643    0.0000
  14691 O          17.7507   68.6184   55.2339 O.3   14644  HOH14644    0.0000
  14692 O          11.4179   48.9011   68.6184 O.3   14645  HOH14645    0.0000
  14693 O          55.2339    4.4666   42.4678 O.3   14646  HOH14646    0.0000
  14694 O          55.8524   62.1852   86.9023 O.3   14647  HOH14647    0.0000
  14695 O          10.7994   17.7507   24.1839 O.3   14648  HOH14648    0.0000
  14696 O          33.6351    1.9667   39.9679 O.3   14649  HOH14649    0.0000
  14697 O          77.4511   64.6851   84.4024 O.3   14650  HOH14650    0.0000
  14698 O          78.0696   20.2506   26.6838 O.3   14651  HOH14651    0.0000
  14699 O          33.0166   46.4012   71.1183 O.3   14652  HOH14652    0.0000
  14700 O          46.4012   26.6838   77.4511 O.3   14653  HOH14653    0.0000
  14701 O          20.2506   71.1183   33.6351 O.3   14654  HOH14654    0.0000
  14702 O          64.6851   39.9679   33.0166 O.3   14655  HOH14655    0.0000
  14703 O           1.9667   84.4024   78.0696 O.3   14656  HOH14656    0.0000
  14704 O          71.1183   78.0696   64.6851 O.3   14657  HOH14657    0.0000
  14705 O          26.6838   33.0166    1.9667 O.3   14658  HOH14658    0.0000
  14706 O          84.4024   33.6351   46.4012 O.3   14659  HOH14659    0.0000
  14707 O          39.9679   77.4511   20.2506 O.3   14660  HOH14660    0.0000
  14708 O          54.3354   81.4280   36.9935 O.3   14661  HOH14661    0.0000
  14709 O           9.9009   74.0927   74.0927 O.3   14662  HOH14662    0.0000
  14710 O          56.7508   36.9935   29.6582 O.3   14663  HOH14663    0.0000
  14711 O          81.4280   12.3164   29.6582 O.3   14664  HOH14664    0.0000
  14712 O          36.9935   54.3354   81.4280 O.3   14665  HOH14665    0.0000
  14713 O          74.0927    9.9009   74.0927 O.3   14666  HOH14666    0.0000
  14714 O          29.6582   56.7508   36.9935 O.3   14667  HOH14667    0.0000
  14715 O          29.6582   81.4280   12.3164 O.3   14668  HOH14668    0.0000
  14716 O          81.4280   36.9935   54.3354 O.3   14669  HOH14669    0.0000
  14717 O          74.0927   74.0927    9.9009 O.3   14670  HOH14670    0.0000
  14718 O          36.9935   29.6582   56.7508 O.3   14671  HOH14671    0.0000
  14719 O           7.4410   34.5336   51.8755 O.3   14672  HOH14672    0.0000
  14720 O          59.2107   76.5526    7.4410 O.3   14673  HOH14673    0.0000
  14721 O          51.8755   32.1181   59.2107 O.3   14674  HOH14674    0.0000
  14722 O          14.7762   78.9681   14.7762 O.3   14675  HOH14675    0.0000
  14723 O          78.9681   14.7762   14.7762 O.3   14676  HOH14676    0.0000
  14724 O          32.1181   59.2107   51.8755 O.3   14677  HOH14677    0.0000
  14725 O          76.5526    7.4410   59.2107 O.3   14678  HOH14678    0.0000
  14726 O          34.5336   51.8755    7.4410 O.3   14679  HOH14679    0.0000
  14727 O          59.2107   51.8755   32.1181 O.3   14680  HOH14680    0.0000
  14728 O          14.7762   14.7762   78.9681 O.3   14681  HOH14681    0.0000
  14729 O          51.8755    7.4410   34.5336 O.3   14682  HOH14682    0.0000
  14730 O           7.4410   59.2107   76.5526 O.3   14683  HOH14683    0.0000
  14731 O          76.5526   59.2107    7.4410 O.3   14684  HOH14684    0.0000
  14732 O          34.5336    7.4410   51.8755 O.3   14685  HOH14685    0.0000
  14733 O          32.1181   51.8755   59.2107 O.3   14686  HOH14686    0.0000
  14734 O           7.4410   76.5526   59.2107 O.3   14687  HOH14687    0.0000
  14735 O          51.8755   34.5336    7.4410 O.3   14688  HOH14688    0.0000
  14736 O          59.2107   32.1181   51.8755 O.3   14689  HOH14689    0.0000
  14737 O          59.2107    7.4410   76.5526 O.3   14690  HOH14690    0.0000
  14738 O           7.4410   51.8755   34.5336 O.3   14691  HOH14691    0.0000
  14739 O          51.8755   59.2107   32.1181 O.3   14692  HOH14692    0.0000
  14740 O          81.4280   54.3354   36.9935 O.3   14693  HOH14693    0.0000
  14741 O          29.6582   12.3164   81.4280 O.3   14694  HOH14694    0.0000
  14742 O          36.9935   56.7508   29.6582 O.3   14695  HOH14695    0.0000
  14743 O          56.7508   29.6582   36.9935 O.3   14696  HOH14696    0.0000
  14744 O          12.3164   81.4280   29.6582 O.3   14697  HOH14697    0.0000
  14745 O          54.3354   36.9935   81.4280 O.3   14698  HOH14698    0.0000
  14746 O          29.6582   36.9935   56.7508 O.3   14699  HOH14699    0.0000
  14747 O          36.9935   81.4280   54.3354 O.3   14700  HOH14700    0.0000
  14748 O          81.4280   29.6582   12.3164 O.3   14701  HOH14701    0.0000
  14749 O          12.3164   74.0927   36.9935 O.3   14702  HOH14702    0.0000
  14750 O           9.9009   29.6582   29.6582 O.3   14703  HOH14703    0.0000
  14751 O          56.7508   81.4280   74.0927 O.3   14704  HOH14704    0.0000
  14752 O          81.4280   56.7508   74.0927 O.3   14705  HOH14705    0.0000
  14753 O          36.9935    9.9009   36.9935 O.3   14706  HOH14706    0.0000
  14754 O          74.0927   54.3354   29.6582 O.3   14707  HOH14707    0.0000
  14755 O          81.4280   81.4280    9.9009 O.3   14708  HOH14708    0.0000
  14756 O          74.0927   29.6582   54.3354 O.3   14709  HOH14709    0.0000
  14757 O          36.9935   74.0927   12.3164 O.3   14710  HOH14710    0.0000
  14758 O           7.4410   78.9681    7.4410 O.3   14711  HOH14711    0.0000
  14759 O          51.8755   76.5526   14.7762 O.3   14712  HOH14712    0.0000
  14760 O          14.7762   34.5336   59.2107 O.3   14713  HOH14713    0.0000
  14761 O          78.9681   59.2107   59.2107 O.3   14714  HOH14714    0.0000
  14762 O          32.1181   14.7762    7.4410 O.3   14715  HOH14715    0.0000
  14763 O          76.5526   51.8755   14.7762 O.3   14716  HOH14716    0.0000
  14764 O          14.7762   59.2107   34.5336 O.3   14717  HOH14717    0.0000
  14765 O          51.8755   51.8755   78.9681 O.3   14718  HOH14718    0.0000
  14766 O           7.4410   14.7762   32.1181 O.3   14719  HOH14719    0.0000
  14767 O          76.5526   14.7762   51.8755 O.3   14720  HOH14720    0.0000
  14768 O          32.1181    7.4410   14.7762 O.3   14721  HOH14721    0.0000
  14769 O           7.4410   32.1181   14.7762 O.3   14722  HOH14722    0.0000
  14770 O          51.8755   78.9681   51.8755 O.3   14723  HOH14723    0.0000
  14771 O           7.4410    7.4410   78.9681 O.3   14724  HOH14724    0.0000
  14772 O          51.8755   14.7762   76.5526 O.3   14725  HOH14725    0.0000
  14773 O          81.4280    9.9009   81.4280 O.3   14726  HOH14726    0.0000
  14774 O          36.9935   12.3164   74.0927 O.3   14727  HOH14727    0.0000
  14775 O          56.7508   74.0927   81.4280 O.3   14728  HOH14728    0.0000
  14776 O          12.3164   36.9935   74.0927 O.3   14729  HOH14729    0.0000
  14777 O          36.9935   36.9935    9.9009 O.3   14730  HOH14730    0.0000
  14778 O          81.4280   74.0927   56.7508 O.3   14731  HOH14731    0.0000
  14779 O           9.9009   81.4280   81.4280 O.3   14732  HOH14732    0.0000
  14780 O          54.3354   74.0927   29.6582 O.3   14733  HOH14733    0.0000
  14781 O          29.6582    9.9009   29.6582 O.3   14734  HOH14734    0.0000
  14782 O          74.0927   56.7508   81.4280 O.3   14735  HOH14735    0.0000
  14783 O          74.0927   81.4280   56.7508 O.3   14736  HOH14736    0.0000
  14784 O          29.6582   74.0927   54.3354 O.3   14737  HOH14737    0.0000
  14785 O          14.7762   76.5526   51.8755 O.3   14738  HOH14738    0.0000
  14786 O          59.2107   78.9681   59.2107 O.3   14739  HOH14739    0.0000
  14787 O          34.5336   14.7762   59.2107 O.3   14740  HOH14740    0.0000
  14788 O          78.9681   51.8755   51.8755 O.3   14741  HOH14741    0.0000
  14789 O          14.7762   51.8755   76.5526 O.3   14742  HOH14742    0.0000
  14790 O          59.2107   14.7762   34.5336 O.3   14743  HOH14743    0.0000
  14791 O          78.9681    7.4410    7.4410 O.3   14744  HOH14744    0.0000
  14792 O          14.7762   32.1181    7.4410 O.3   14745  HOH14745    0.0000
  14793 O          14.7762    7.4410   32.1181 O.3   14746  HOH14746    0.0000
  14794 O          74.0927   12.3164   36.9935 O.3   14747  HOH14747    0.0000
  14795 O           9.9009   36.9935   36.9935 O.3   14748  HOH14748    0.0000
  14796 O          74.0927   36.9935   12.3164 O.3   14749  HOH14749    0.0000
  14797 O          54.3354   29.6582   74.0927 O.3   14750  HOH14750    0.0000
  14798 O          29.6582   54.3354   74.0927 O.3   14751  HOH14751    0.0000
  14799 O          29.6582   29.6582    9.9009 O.3   14752  HOH14752    0.0000
  14800 O          59.2107   34.5336   14.7762 O.3   14753  HOH14753    0.0000
  14801 O          34.5336   59.2107   14.7762 O.3   14754  HOH14754    0.0000
  14802 O          59.2107   59.2107   78.9681 O.3   14755  HOH14755    0.0000
  14803 O          52.3892   16.2150   82.1309 O.3   14756  HOH14756    0.0000
  14804 O           7.9547   50.4367   28.9553 O.3   14757  HOH14757    0.0000
  14805 O          58.6971   60.6495   73.3898 O.3   14758  HOH14758    0.0000
  14806 O          37.6964   14.2626    6.0022 O.3   14759  HOH14759    0.0000
  14807 O          82.1309   52.3892   16.2150 O.3   14760  HOH14760    0.0000
  14808 O          28.9553    7.9547   50.4367 O.3   14761  HOH14761    0.0000
  14809 O          73.3898   58.6971   60.6495 O.3   14762  HOH14762    0.0000
  14810 O           6.0022   37.6964   14.2626 O.3   14763  HOH14763    0.0000
  14811 O          16.2150   82.1309   52.3892 O.3   14764  HOH14764    0.0000
  14812 O          50.4367   28.9553    7.9547 O.3   14765  HOH14765    0.0000
  14813 O          60.6495   73.3898   58.6971 O.3   14766  HOH14766    0.0000
  14814 O          72.6540   36.4798    6.7380 O.3   14767  HOH14767    0.0000
  14815 O          82.8668   74.6064   51.1725 O.3   14768  HOH14768    0.0000
  14816 O          28.2195   30.1719   15.4792 O.3   14769  HOH14769    0.0000
  14817 O          38.4323   80.9143   59.9137 O.3   14770  HOH14770    0.0000
  14818 O          80.9143   59.9137   38.4323 O.3   14771  HOH14771    0.0000
  14819 O          30.1719   15.4792   28.2195 O.3   14772  HOH14772    0.0000
  14820 O          74.6064   51.1725   82.8668 O.3   14773  HOH14773    0.0000
  14821 O          36.4798    6.7380   72.6540 O.3   14774  HOH14774    0.0000
  14822 O          15.4792   28.2195   30.1719 O.3   14775  HOH14775    0.0000
  14823 O          59.9137   38.4323   80.9143 O.3   14776  HOH14776    0.0000
  14824 O           6.7380   72.6540   36.4798 O.3   14777  HOH14777    0.0000
  14825 O          51.1725   82.8668   74.6064 O.3   14778  HOH14778    0.0000
  14826 O          74.6064   82.8668   51.1725 O.3   14779  HOH14779    0.0000
  14827 O          36.4798   72.6540    6.7380 O.3   14780  HOH14780    0.0000
  14828 O          80.9143   38.4323   59.9137 O.3   14781  HOH14781    0.0000
  14829 O          30.1719   28.2195   15.4792 O.3   14782  HOH14782    0.0000
  14830 O          51.1725   74.6064   82.8668 O.3   14783  HOH14783    0.0000
  14831 O           6.7380   36.4798   72.6540 O.3   14784  HOH14784    0.0000
  14832 O          59.9137   80.9143   38.4323 O.3   14785  HOH14785    0.0000
  14833 O          15.4792   30.1719   28.2195 O.3   14786  HOH14786    0.0000
  14834 O          82.8668   51.1725   74.6064 O.3   14787  HOH14787    0.0000
  14835 O          72.6540    6.7380   36.4798 O.3   14788  HOH14788    0.0000
  14836 O          38.4323   59.9137   80.9143 O.3   14789  HOH14789    0.0000
  14837 O          28.2195   15.4792   30.1719 O.3   14790  HOH14790    0.0000
  14838 O          16.2150   52.3892   82.1309 O.3   14791  HOH14791    0.0000
  14839 O           6.0022   14.2626   37.6964 O.3   14792  HOH14792    0.0000
  14840 O          60.6495   58.6971   73.3898 O.3   14793  HOH14793    0.0000
  14841 O          50.4367    7.9547   28.9553 O.3   14794  HOH14794    0.0000
  14842 O           7.9547   28.9553   50.4367 O.3   14795  HOH14795    0.0000
  14843 O          58.6971   73.3898   60.6495 O.3   14796  HOH14796    0.0000
  14844 O          14.2626   37.6964    6.0022 O.3   14797  HOH14797    0.0000
  14845 O          52.3892   82.1309   16.2150 O.3   14798  HOH14798    0.0000
  14846 O          73.3898   60.6495   58.6971 O.3   14799  HOH14799    0.0000
  14847 O          28.9553   50.4367    7.9547 O.3   14800  HOH14800    0.0000
  14848 O          82.1309   16.2150   52.3892 O.3   14801  HOH14801    0.0000
  14849 O          37.6964    6.0022   14.2626 O.3   14802  HOH14802    0.0000
  14850 O          14.2626   50.4367   82.1309 O.3   14803  HOH14803    0.0000
  14851 O          52.3892   60.6495   37.6964 O.3   14804  HOH14804    0.0000
  14852 O           7.9547    6.0022   73.3898 O.3   14805  HOH14805    0.0000
  14853 O          58.6971   16.2150   28.9553 O.3   14806  HOH14806    0.0000
  14854 O          37.6964   58.6971   50.4367 O.3   14807  HOH14807    0.0000
  14855 O          82.1309    7.9547   60.6495 O.3   14808  HOH14808    0.0000
  14856 O          28.9553   52.3892    6.0022 O.3   14809  HOH14809    0.0000
  14857 O          73.3898   14.2626   16.2150 O.3   14810  HOH14810    0.0000
  14858 O           6.0022   82.1309   58.6971 O.3   14811  HOH14811    0.0000
  14859 O          16.2150   37.6964    7.9547 O.3   14812  HOH14812    0.0000
  14860 O          50.4367   73.3898   52.3892 O.3   14813  HOH14813    0.0000
  14861 O          60.6495   28.9553   14.2626 O.3   14814  HOH14814    0.0000
  14862 O          72.6540   80.9143   51.1725 O.3   14815  HOH14815    0.0000
  14863 O          82.8668   30.1719    6.7380 O.3   14816  HOH14816    0.0000
  14864 O          28.2195   74.6064   59.9137 O.3   14817  HOH14817    0.0000
  14865 O          38.4323   36.4798   15.4792 O.3   14818  HOH14818    0.0000
  14866 O          80.9143   15.4792   82.8668 O.3   14819  HOH14819    0.0000
  14867 O          30.1719   59.9137   72.6540 O.3   14820  HOH14820    0.0000
  14868 O          74.6064    6.7380   38.4323 O.3   14821  HOH14821    0.0000
  14869 O          36.4798   51.1725   28.2195 O.3   14822  HOH14822    0.0000
  14870 O          15.4792   72.6540   74.6064 O.3   14823  HOH14823    0.0000
  14871 O          59.9137   82.8668   36.4798 O.3   14824  HOH14824    0.0000
  14872 O           6.7380   28.2195   80.9143 O.3   14825  HOH14825    0.0000
  14873 O          51.1725   38.4323   30.1719 O.3   14826  HOH14826    0.0000
  14874 O          74.6064   38.4323    6.7380 O.3   14827  HOH14827    0.0000
  14875 O          36.4798   28.2195   51.1725 O.3   14828  HOH14828    0.0000
  14876 O          80.9143   82.8668   15.4792 O.3   14829  HOH14829    0.0000
  14877 O          30.1719   72.6540   59.9137 O.3   14830  HOH14830    0.0000
  14878 O          51.1725   30.1719   38.4323 O.3   14831  HOH14831    0.0000
  14879 O           6.7380   80.9143   28.2195 O.3   14832  HOH14832    0.0000
  14880 O          59.9137   36.4798   82.8668 O.3   14833  HOH14833    0.0000
  14881 O          15.4792   74.6064   72.6540 O.3   14834  HOH14834    0.0000
  14882 O          82.8668    6.7380   30.1719 O.3   14835  HOH14835    0.0000
  14883 O          72.6540   51.1725   80.9143 O.3   14836  HOH14836    0.0000
  14884 O          38.4323   15.4792   36.4798 O.3   14837  HOH14837    0.0000
  14885 O          28.2195   59.9137   74.6064 O.3   14838  HOH14838    0.0000
  14886 O          16.2150    7.9547   37.6964 O.3   14839  HOH14839    0.0000
  14887 O           6.0022   58.6971   82.1309 O.3   14840  HOH14840    0.0000
  14888 O          60.6495   14.2626   28.9553 O.3   14841  HOH14841    0.0000
  14889 O          50.4367   52.3892   73.3898 O.3   14842  HOH14842    0.0000
  14890 O           7.9547   73.3898    6.0022 O.3   14843  HOH14843    0.0000
  14891 O          58.6971   28.9553   16.2150 O.3   14844  HOH14844    0.0000
  14892 O          14.2626   82.1309   50.4367 O.3   14845  HOH14845    0.0000
  14893 O          52.3892   37.6964   60.6495 O.3   14846  HOH14846    0.0000
  14894 O          73.3898   16.2150   14.2626 O.3   14847  HOH14847    0.0000
  14895 O          28.9553    6.0022   52.3892 O.3   14848  HOH14848    0.0000
  14896 O          82.1309   60.6495    7.9547 O.3   14849  HOH14849    0.0000
  14897 O          37.6964   50.4367   58.6971 O.3   14850  HOH14850    0.0000
  14898 O          58.6971    6.0022   82.1309 O.3   14851  HOH14851    0.0000
  14899 O           7.9547   16.2150   37.6964 O.3   14852  HOH14852    0.0000
  14900 O          52.3892   50.4367   73.3898 O.3   14853  HOH14853    0.0000
  14901 O          14.2626   60.6495   28.9553 O.3   14854  HOH14854    0.0000
  14902 O          82.1309   14.2626   50.4367 O.3   14855  HOH14855    0.0000
  14903 O          37.6964   52.3892   60.6495 O.3   14856  HOH14856    0.0000
  14904 O          73.3898    7.9547    6.0022 O.3   14857  HOH14857    0.0000
  14905 O          28.9553   58.6971   16.2150 O.3   14858  HOH14858    0.0000
  14906 O          50.4367   37.6964   58.6971 O.3   14859  HOH14859    0.0000
  14907 O          60.6495   82.1309    7.9547 O.3   14860  HOH14860    0.0000
  14908 O           6.0022   28.9553   52.3892 O.3   14861  HOH14861    0.0000
  14909 O          16.2150   73.3898   14.2626 O.3   14862  HOH14862    0.0000
  14910 O          28.2195   36.4798   51.1725 O.3   14863  HOH14863    0.0000
  14911 O          38.4323   74.6064    6.7380 O.3   14864  HOH14864    0.0000
  14912 O          72.6540   30.1719   59.9137 O.3   14865  HOH14865    0.0000
  14913 O          82.8668   80.9143   15.4792 O.3   14866  HOH14866    0.0000
  14914 O          36.4798   59.9137   82.8668 O.3   14867  HOH14867    0.0000
  14915 O          74.6064   15.4792   72.6540 O.3   14868  HOH14868    0.0000
  14916 O          30.1719   51.1725   38.4323 O.3   14869  HOH14869    0.0000
  14917 O          80.9143    6.7380   28.2195 O.3   14870  HOH14870    0.0000
  14918 O          59.9137   28.2195   74.6064 O.3   14871  HOH14871    0.0000
  14919 O          15.4792   38.4323   36.4798 O.3   14872  HOH14872    0.0000
  14920 O          51.1725   72.6540   80.9143 O.3   14873  HOH14873    0.0000
  14921 O           6.7380   82.8668   30.1719 O.3   14874  HOH14874    0.0000
  14922 O          30.1719   82.8668    6.7380 O.3   14875  HOH14875    0.0000
  14923 O          80.9143   72.6540   51.1725 O.3   14876  HOH14876    0.0000
  14924 O          36.4798   38.4323   15.4792 O.3   14877  HOH14877    0.0000
  14925 O          74.6064   28.2195   59.9137 O.3   14878  HOH14878    0.0000
  14926 O           6.7380   74.6064   38.4323 O.3   14879  HOH14879    0.0000
  14927 O          51.1725   36.4798   28.2195 O.3   14880  HOH14880    0.0000
  14928 O          15.4792   80.9143   82.8668 O.3   14881  HOH14881    0.0000
  14929 O          59.9137   30.1719   72.6540 O.3   14882  HOH14882    0.0000
  14930 O          38.4323   51.1725   30.1719 O.3   14883  HOH14883    0.0000
  14931 O          28.2195    6.7380   80.9143 O.3   14884  HOH14884    0.0000
  14932 O          82.8668   59.9137   36.4798 O.3   14885  HOH14885    0.0000
  14933 O          72.6540   15.4792   74.6064 O.3   14886  HOH14886    0.0000
  14934 O          60.6495   52.3892   37.6964 O.3   14887  HOH14887    0.0000
  14935 O          50.4367   14.2626   82.1309 O.3   14888  HOH14888    0.0000
  14936 O          16.2150   58.6971   28.9553 O.3   14889  HOH14889    0.0000
  14937 O           6.0022    7.9547   73.3898 O.3   14890  HOH14890    0.0000
  14938 O          52.3892   28.9553    6.0022 O.3   14891  HOH14891    0.0000
  14939 O          14.2626   73.3898   16.2150 O.3   14892  HOH14892    0.0000
  14940 O          58.6971   37.6964   50.4367 O.3   14893  HOH14893    0.0000
  14941 O           7.9547   82.1309   60.6495 O.3   14894  HOH14894    0.0000
  14942 O          28.9553   60.6495   14.2626 O.3   14895  HOH14895    0.0000
  14943 O          73.3898   50.4367   52.3892 O.3   14896  HOH14896    0.0000
  14944 O          37.6964   16.2150    7.9547 O.3   14897  HOH14897    0.0000
  14945 O          82.1309    6.0022   58.6971 O.3   14898  HOH14898    0.0000
  14946 O          58.6971   50.4367   37.6964 O.3   14899  HOH14899    0.0000
  14947 O           7.9547   60.6495   82.1309 O.3   14900  HOH14900    0.0000
  14948 O          52.3892    6.0022   28.9553 O.3   14901  HOH14901    0.0000
  14949 O          14.2626   16.2150   73.3898 O.3   14902  HOH14902    0.0000
  14950 O          82.1309   58.6971    6.0022 O.3   14903  HOH14903    0.0000
  14951 O          37.6964    7.9547   16.2150 O.3   14904  HOH14904    0.0000
  14952 O          73.3898   52.3892   50.4367 O.3   14905  HOH14905    0.0000
  14953 O          28.9553   14.2626   60.6495 O.3   14906  HOH14906    0.0000
  14954 O          50.4367   82.1309   14.2626 O.3   14907  HOH14907    0.0000
  14955 O          60.6495   37.6964   52.3892 O.3   14908  HOH14908    0.0000
  14956 O           6.0022   73.3898    7.9547 O.3   14909  HOH14909    0.0000
  14957 O          16.2150   28.9553   58.6971 O.3   14910  HOH14910    0.0000
  14958 O          28.2195   80.9143    6.7380 O.3   14911  HOH14911    0.0000
  14959 O          38.4323   30.1719   51.1725 O.3   14912  HOH14912    0.0000
  14960 O          72.6540   74.6064   15.4792 O.3   14913  HOH14913    0.0000
  14961 O          82.8668   36.4798   59.9137 O.3   14914  HOH14914    0.0000
  14962 O          36.4798   15.4792   38.4323 O.3   14915  HOH14915    0.0000
  14963 O          74.6064   59.9137   28.2195 O.3   14916  HOH14916    0.0000
  14964 O          30.1719    6.7380   82.8668 O.3   14917  HOH14917    0.0000
  14965 O          80.9143   51.1725   72.6540 O.3   14918  HOH14918    0.0000
  14966 O          59.9137   72.6540   30.1719 O.3   14919  HOH14919    0.0000
  14967 O          15.4792   82.8668   80.9143 O.3   14920  HOH14920    0.0000
  14968 O          51.1725   28.2195   36.4798 O.3   14921  HOH14921    0.0000
  14969 O           6.7380   38.4323   74.6064 O.3   14922  HOH14922    0.0000
  14970 O          30.1719   38.4323   51.1725 O.3   14923  HOH14923    0.0000
  14971 O          80.9143   28.2195    6.7380 O.3   14924  HOH14924    0.0000
  14972 O          36.4798   82.8668   59.9137 O.3   14925  HOH14925    0.0000
  14973 O          74.6064   72.6540   15.4792 O.3   14926  HOH14926    0.0000
  14974 O           6.7380   30.1719   82.8668 O.3   14927  HOH14927    0.0000
  14975 O          51.1725   80.9143   72.6540 O.3   14928  HOH14928    0.0000
  14976 O          15.4792   36.4798   38.4323 O.3   14929  HOH14929    0.0000
  14977 O          59.9137   74.6064   28.2195 O.3   14930  HOH14930    0.0000
  14978 O          38.4323    6.7380   74.6064 O.3   14931  HOH14931    0.0000
  14979 O          28.2195   51.1725   36.4798 O.3   14932  HOH14932    0.0000
  14980 O          82.8668   15.4792   80.9143 O.3   14933  HOH14933    0.0000
  14981 O          72.6540   59.9137   30.1719 O.3   14934  HOH14934    0.0000
  14982 O          60.6495    7.9547   82.1309 O.3   14935  HOH14935    0.0000
  14983 O          50.4367   58.6971   37.6964 O.3   14936  HOH14936    0.0000
  14984 O          16.2150   14.2626   73.3898 O.3   14937  HOH14937    0.0000
  14985 O           6.0022   52.3892   28.9553 O.3   14938  HOH14938    0.0000
  14986 O          52.3892   73.3898   50.4367 O.3   14939  HOH14939    0.0000
  14987 O          14.2626   28.9553   60.6495 O.3   14940  HOH14940    0.0000
  14988 O          58.6971   82.1309    6.0022 O.3   14941  HOH14941    0.0000
  14989 O           7.9547   37.6964   16.2150 O.3   14942  HOH14942    0.0000
  14990 O          28.9553   16.2150   58.6971 O.3   14943  HOH14943    0.0000
  14991 O          73.3898    6.0022    7.9547 O.3   14944  HOH14944    0.0000
  14992 O          37.6964   60.6495   52.3892 O.3   14945  HOH14945    0.0000
  14993 O          82.1309   50.4367   14.2626 O.3   14946  HOH14946    0.0000
  14994 O          56.4620   16.5838   83.7706 O.3   14947  HOH14947    0.0000
  14995 O          12.0275   50.0679   27.3157 O.3   14948  HOH14948    0.0000
  14996 O          54.6242   61.0183   71.7502 O.3   14949  HOH14949    0.0000
  14997 O          39.3361   10.1897    5.6334 O.3   14950  HOH14950    0.0000
  14998 O          83.7706   56.4620   16.5838 O.3   14951  HOH14951    0.0000
  14999 O          27.3157   12.0275   50.0679 O.3   14952  HOH14952    0.0000
  15000 O          71.7502   54.6242   61.0183 O.3   14953  HOH14953    0.0000
  15001 O           5.6334   39.3361   10.1897 O.3   14954  HOH14954    0.0000
  15002 O          16.5838   83.7706   56.4620 O.3   14955  HOH14955    0.0000
  15003 O          50.0679   27.3157   12.0275 O.3   14956  HOH14956    0.0000
  15004 O          61.0183   71.7502   54.6242 O.3   14957  HOH14957    0.0000
  15005 O          72.2851   32.4070    5.0984 O.3   14958  HOH14958    0.0000
  15006 O          83.2356   78.6793   49.5329 O.3   14959  HOH14959    0.0000
  15007 O          27.8507   34.2448   17.1188 O.3   14960  HOH14960    0.0000
  15008 O          38.8011   76.8415   61.5533 O.3   14961  HOH14961    0.0000
  15009 O          76.8415   61.5533   38.8011 O.3   14962  HOH14962    0.0000
  15010 O          34.2448   17.1188   27.8507 O.3   14963  HOH14963    0.0000
  15011 O          78.6793   49.5329   83.2356 O.3   14964  HOH14964    0.0000
  15012 O          32.4070    5.0984   72.2851 O.3   14965  HOH14965    0.0000
  15013 O          17.1188   27.8507   34.2448 O.3   14966  HOH14966    0.0000
  15014 O          61.5533   38.8011   76.8415 O.3   14967  HOH14967    0.0000
  15015 O           5.0984   72.2851   32.4070 O.3   14968  HOH14968    0.0000
  15016 O          49.5329   83.2356   78.6793 O.3   14969  HOH14969    0.0000
  15017 O          78.6793   83.2356   49.5329 O.3   14970  HOH14970    0.0000
  15018 O          32.4070   72.2851    5.0984 O.3   14971  HOH14971    0.0000
  15019 O          76.8415   38.8011   61.5533 O.3   14972  HOH14972    0.0000
  15020 O          34.2448   27.8507   17.1188 O.3   14973  HOH14973    0.0000
  15021 O          49.5329   78.6793   83.2356 O.3   14974  HOH14974    0.0000
  15022 O           5.0984   32.4070   72.2851 O.3   14975  HOH14975    0.0000
  15023 O          61.5533   76.8415   38.8011 O.3   14976  HOH14976    0.0000
  15024 O          17.1188   34.2448   27.8507 O.3   14977  HOH14977    0.0000
  15025 O          83.2356   49.5329   78.6793 O.3   14978  HOH14978    0.0000
  15026 O          72.2851    5.0984   32.4070 O.3   14979  HOH14979    0.0000
  15027 O          38.8011   61.5533   76.8415 O.3   14980  HOH14980    0.0000
  15028 O          27.8507   17.1188   34.2448 O.3   14981  HOH14981    0.0000
  15029 O          16.5838   56.4620   83.7706 O.3   14982  HOH14982    0.0000
  15030 O           5.6334   10.1897   39.3361 O.3   14983  HOH14983    0.0000
  15031 O          61.0183   54.6242   71.7502 O.3   14984  HOH14984    0.0000
  15032 O          50.0679   12.0275   27.3157 O.3   14985  HOH14985    0.0000
  15033 O          12.0275   27.3157   50.0679 O.3   14986  HOH14986    0.0000
  15034 O          54.6242   71.7502   61.0183 O.3   14987  HOH14987    0.0000
  15035 O          10.1897   39.3361    5.6334 O.3   14988  HOH14988    0.0000
  15036 O          56.4620   83.7706   16.5838 O.3   14989  HOH14989    0.0000
  15037 O          71.7502   61.0183   54.6242 O.3   14990  HOH14990    0.0000
  15038 O          27.3157   50.0679   12.0275 O.3   14991  HOH14991    0.0000
  15039 O          83.7706   16.5838   56.4620 O.3   14992  HOH14992    0.0000
  15040 O          39.3361    5.6334   10.1897 O.3   14993  HOH14993    0.0000
  15041 O          10.1897   50.0679   83.7706 O.3   14994  HOH14994    0.0000
  15042 O          56.4620   61.0183   39.3361 O.3   14995  HOH14995    0.0000
  15043 O          12.0275    5.6334   71.7502 O.3   14996  HOH14996    0.0000
  15044 O          54.6242   16.5838   27.3157 O.3   14997  HOH14997    0.0000
  15045 O          39.3361   54.6242   50.0679 O.3   14998  HOH14998    0.0000
  15046 O          83.7706   12.0275   61.0183 O.3   14999  HOH14999    0.0000
  15047 O          27.3157   56.4620    5.6334 O.3   15000  HOH15000    0.0000
  15048 O          71.7502   10.1897   16.5838 O.3   15001  HOH15001    0.0000
  15049 O           5.6334   83.7706   54.6242 O.3   15002  HOH15002    0.0000
  15050 O          16.5838   39.3361   12.0275 O.3   15003  HOH15003    0.0000
  15051 O          50.0679   71.7502   56.4620 O.3   15004  HOH15004    0.0000
  15052 O          61.0183   27.3157   10.1897 O.3   15005  HOH15005    0.0000
  15053 O          72.2851   76.8415   49.5329 O.3   15006  HOH15006    0.0000
  15054 O          83.2356   34.2448    5.0984 O.3   15007  HOH15007    0.0000
  15055 O          27.8507   78.6793   61.5533 O.3   15008  HOH15008    0.0000
  15056 O          38.8011   32.4070   17.1188 O.3   15009  HOH15009    0.0000
  15057 O          76.8415   17.1188   83.2356 O.3   15010  HOH15010    0.0000
  15058 O          34.2448   61.5533   72.2851 O.3   15011  HOH15011    0.0000
  15059 O          78.6793    5.0984   38.8011 O.3   15012  HOH15012    0.0000
  15060 O          32.4070   49.5329   27.8507 O.3   15013  HOH15013    0.0000
  15061 O          17.1188   72.2851   78.6793 O.3   15014  HOH15014    0.0000
  15062 O          61.5533   83.2356   32.4070 O.3   15015  HOH15015    0.0000
  15063 O           5.0984   27.8507   76.8415 O.3   15016  HOH15016    0.0000
  15064 O          49.5329   38.8011   34.2448 O.3   15017  HOH15017    0.0000
  15065 O          78.6793   38.8011    5.0984 O.3   15018  HOH15018    0.0000
  15066 O          32.4070   27.8507   49.5329 O.3   15019  HOH15019    0.0000
  15067 O          76.8415   83.2356   17.1188 O.3   15020  HOH15020    0.0000
  15068 O          34.2448   72.2851   61.5533 O.3   15021  HOH15021    0.0000
  15069 O          49.5329   34.2448   38.8011 O.3   15022  HOH15022    0.0000
  15070 O           5.0984   76.8415   27.8507 O.3   15023  HOH15023    0.0000
  15071 O          61.5533   32.4070   83.2356 O.3   15024  HOH15024    0.0000
  15072 O          17.1188   78.6793   72.2851 O.3   15025  HOH15025    0.0000
  15073 O          83.2356    5.0984   34.2448 O.3   15026  HOH15026    0.0000
  15074 O          72.2851   49.5329   76.8415 O.3   15027  HOH15027    0.0000
  15075 O          38.8011   17.1188   32.4070 O.3   15028  HOH15028    0.0000
  15076 O          27.8507   61.5533   78.6793 O.3   15029  HOH15029    0.0000
  15077 O          16.5838   12.0275   39.3361 O.3   15030  HOH15030    0.0000
  15078 O           5.6334   54.6242   83.7706 O.3   15031  HOH15031    0.0000
  15079 O          61.0183   10.1897   27.3157 O.3   15032  HOH15032    0.0000
  15080 O          50.0679   56.4620   71.7502 O.3   15033  HOH15033    0.0000
  15081 O          12.0275   71.7502    5.6334 O.3   15034  HOH15034    0.0000
  15082 O          54.6242   27.3157   16.5838 O.3   15035  HOH15035    0.0000
  15083 O          10.1897   83.7706   50.0679 O.3   15036  HOH15036    0.0000
  15084 O          56.4620   39.3361   61.0183 O.3   15037  HOH15037    0.0000
  15085 O          71.7502   16.5838   10.1897 O.3   15038  HOH15038    0.0000
  15086 O          27.3157    5.6334   56.4620 O.3   15039  HOH15039    0.0000
  15087 O          83.7706   61.0183   12.0275 O.3   15040  HOH15040    0.0000
  15088 O          39.3361   50.0679   54.6242 O.3   15041  HOH15041    0.0000
  15089 O          54.6242    5.6334   83.7706 O.3   15042  HOH15042    0.0000
  15090 O          12.0275   16.5838   39.3361 O.3   15043  HOH15043    0.0000
  15091 O          56.4620   50.0679   71.7502 O.3   15044  HOH15044    0.0000
  15092 O          10.1897   61.0183   27.3157 O.3   15045  HOH15045    0.0000
  15093 O          83.7706   10.1897   50.0679 O.3   15046  HOH15046    0.0000
  15094 O          39.3361   56.4620   61.0183 O.3   15047  HOH15047    0.0000
  15095 O          71.7502   12.0275    5.6334 O.3   15048  HOH15048    0.0000
  15096 O          27.3157   54.6242   16.5838 O.3   15049  HOH15049    0.0000
  15097 O          50.0679   39.3361   54.6242 O.3   15050  HOH15050    0.0000
  15098 O          61.0183   83.7706   12.0275 O.3   15051  HOH15051    0.0000
  15099 O           5.6334   27.3157   56.4620 O.3   15052  HOH15052    0.0000
  15100 O          16.5838   71.7502   10.1897 O.3   15053  HOH15053    0.0000
  15101 O          27.8507   32.4070   49.5329 O.3   15054  HOH15054    0.0000
  15102 O          38.8011   78.6793    5.0984 O.3   15055  HOH15055    0.0000
  15103 O          72.2851   34.2448   61.5533 O.3   15056  HOH15056    0.0000
  15104 O          83.2356   76.8415   17.1188 O.3   15057  HOH15057    0.0000
  15105 O          32.4070   61.5533   83.2356 O.3   15058  HOH15058    0.0000
  15106 O          78.6793   17.1188   72.2851 O.3   15059  HOH15059    0.0000
  15107 O          34.2448   49.5329   38.8011 O.3   15060  HOH15060    0.0000
  15108 O          76.8415    5.0984   27.8507 O.3   15061  HOH15061    0.0000
  15109 O          61.5533   27.8507   78.6793 O.3   15062  HOH15062    0.0000
  15110 O          17.1188   38.8011   32.4070 O.3   15063  HOH15063    0.0000
  15111 O          49.5329   72.2851   76.8415 O.3   15064  HOH15064    0.0000
  15112 O           5.0984   83.2356   34.2448 O.3   15065  HOH15065    0.0000
  15113 O          34.2448   83.2356    5.0984 O.3   15066  HOH15066    0.0000
  15114 O          76.8415   72.2851   49.5329 O.3   15067  HOH15067    0.0000
  15115 O          32.4070   38.8011   17.1188 O.3   15068  HOH15068    0.0000
  15116 O          78.6793   27.8507   61.5533 O.3   15069  HOH15069    0.0000
  15117 O           5.0984   78.6793   38.8011 O.3   15070  HOH15070    0.0000
  15118 O          49.5329   32.4070   27.8507 O.3   15071  HOH15071    0.0000
  15119 O          17.1188   76.8415   83.2356 O.3   15072  HOH15072    0.0000
  15120 O          61.5533   34.2448   72.2851 O.3   15073  HOH15073    0.0000
  15121 O          38.8011   49.5329   34.2448 O.3   15074  HOH15074    0.0000
  15122 O          27.8507    5.0984   76.8415 O.3   15075  HOH15075    0.0000
  15123 O          83.2356   61.5533   32.4070 O.3   15076  HOH15076    0.0000
  15124 O          72.2851   17.1188   78.6793 O.3   15077  HOH15077    0.0000
  15125 O          61.0183   56.4620   39.3361 O.3   15078  HOH15078    0.0000
  15126 O          50.0679   10.1897   83.7706 O.3   15079  HOH15079    0.0000
  15127 O          16.5838   54.6242   27.3157 O.3   15080  HOH15080    0.0000
  15128 O           5.6334   12.0275   71.7502 O.3   15081  HOH15081    0.0000
  15129 O          56.4620   27.3157    5.6334 O.3   15082  HOH15082    0.0000
  15130 O          10.1897   71.7502   16.5838 O.3   15083  HOH15083    0.0000
  15131 O          54.6242   39.3361   50.0679 O.3   15084  HOH15084    0.0000
  15132 O          12.0275   83.7706   61.0183 O.3   15085  HOH15085    0.0000
  15133 O          27.3157   61.0183   10.1897 O.3   15086  HOH15086    0.0000
  15134 O          71.7502   50.0679   56.4620 O.3   15087  HOH15087    0.0000
  15135 O          39.3361   16.5838   12.0275 O.3   15088  HOH15088    0.0000
  15136 O          83.7706    5.6334   54.6242 O.3   15089  HOH15089    0.0000
  15137 O          54.6242   50.0679   39.3361 O.3   15090  HOH15090    0.0000
  15138 O          12.0275   61.0183   83.7706 O.3   15091  HOH15091    0.0000
  15139 O          56.4620    5.6334   27.3157 O.3   15092  HOH15092    0.0000
  15140 O          10.1897   16.5838   71.7502 O.3   15093  HOH15093    0.0000
  15141 O          83.7706   54.6242    5.6334 O.3   15094  HOH15094    0.0000
  15142 O          39.3361   12.0275   16.5838 O.3   15095  HOH15095    0.0000
  15143 O          71.7502   56.4620   50.0679 O.3   15096  HOH15096    0.0000
  15144 O          27.3157   10.1897   61.0183 O.3   15097  HOH15097    0.0000
  15145 O          50.0679   83.7706   10.1897 O.3   15098  HOH15098    0.0000
  15146 O          61.0183   39.3361   56.4620 O.3   15099  HOH15099    0.0000
  15147 O           5.6334   71.7502   12.0275 O.3   15100  HOH15100    0.0000
  15148 O          16.5838   27.3157   54.6242 O.3   15101  HOH15101    0.0000
  15149 O          27.8507   76.8415    5.0984 O.3   15102  HOH15102    0.0000
  15150 O          38.8011   34.2448   49.5329 O.3   15103  HOH15103    0.0000
  15151 O          72.2851   78.6793   17.1188 O.3   15104  HOH15104    0.0000
  15152 O          83.2356   32.4070   61.5533 O.3   15105  HOH15105    0.0000
  15153 O          32.4070   17.1188   38.8011 O.3   15106  HOH15106    0.0000
  15154 O          78.6793   61.5533   27.8507 O.3   15107  HOH15107    0.0000
  15155 O          34.2448    5.0984   83.2356 O.3   15108  HOH15108    0.0000
  15156 O          76.8415   49.5329   72.2851 O.3   15109  HOH15109    0.0000
  15157 O          61.5533   72.2851   34.2448 O.3   15110  HOH15110    0.0000
  15158 O          17.1188   83.2356   76.8415 O.3   15111  HOH15111    0.0000
  15159 O          49.5329   27.8507   32.4070 O.3   15112  HOH15112    0.0000
  15160 O           5.0984   38.8011   78.6793 O.3   15113  HOH15113    0.0000
  15161 O          34.2448   38.8011   49.5329 O.3   15114  HOH15114    0.0000
  15162 O          76.8415   27.8507    5.0984 O.3   15115  HOH15115    0.0000
  15163 O          32.4070   83.2356   61.5533 O.3   15116  HOH15116    0.0000
  15164 O          78.6793   72.2851   17.1188 O.3   15117  HOH15117    0.0000
  15165 O           5.0984   34.2448   83.2356 O.3   15118  HOH15118    0.0000
  15166 O          49.5329   76.8415   72.2851 O.3   15119  HOH15119    0.0000
  15167 O          17.1188   32.4070   38.8011 O.3   15120  HOH15120    0.0000
  15168 O          61.5533   78.6793   27.8507 O.3   15121  HOH15121    0.0000
  15169 O          38.8011    5.0984   78.6793 O.3   15122  HOH15122    0.0000
  15170 O          27.8507   49.5329   32.4070 O.3   15123  HOH15123    0.0000
  15171 O          83.2356   17.1188   76.8415 O.3   15124  HOH15124    0.0000
  15172 O          72.2851   61.5533   34.2448 O.3   15125  HOH15125    0.0000
  15173 O          61.0183   12.0275   83.7706 O.3   15126  HOH15126    0.0000
  15174 O          50.0679   54.6242   39.3361 O.3   15127  HOH15127    0.0000
  15175 O          16.5838   10.1897   71.7502 O.3   15128  HOH15128    0.0000
  15176 O           5.6334   56.4620   27.3157 O.3   15129  HOH15129    0.0000
  15177 O          56.4620   71.7502   50.0679 O.3   15130  HOH15130    0.0000
  15178 O          10.1897   27.3157   61.0183 O.3   15131  HOH15131    0.0000
  15179 O          54.6242   83.7706    5.6334 O.3   15132  HOH15132    0.0000
  15180 O          12.0275   39.3361   16.5838 O.3   15133  HOH15133    0.0000
  15181 O          27.3157   16.5838   54.6242 O.3   15134  HOH15134    0.0000
  15182 O          71.7502    5.6334   12.0275 O.3   15135  HOH15135    0.0000
  15183 O          39.3361   61.0183   56.4620 O.3   15136  HOH15136    0.0000
  15184 O          83.7706   50.0679   10.1897 O.3   15137  HOH15137    0.0000
@<TRIPOS>BOND
     1    17    56    2
     2    56    57    1
     3    59    57    2
     4    59    58    1
     5    58    55    2
     6    55    54    1
     7    16    54    1
     8    30    31    3
     9    36    37    1
    10    34    33    1
    11    15    50   ar
    12    50    14   ar
    13    50    51    1
    14    53    52    2
    15    53    51    1
    16    52    48    1
    17    51    49    2
    18    13    47   ar
    19    48    47    1
    20    48    46    2
    21    47    12   ar
    22    49    46    1
    23    21    64   ar
    24    67    66    2
    25    67    65    1
    26    64    65    1
    27    64    20   ar
    28    66    62    1
    29    65    63    2
    30    19    61   ar
    31    62    61    1
    32    62    60    2
    33    61    18   ar
    34    63    60    1
    35    42    44    1
    36    45    44    1
    37    44    43    1
    38    10    43   ar
    39    43    11   ar
    40    32    35    1
    41     9    39   ar
    42    38    40    1
    43    40    39    1
    44    40    41    1
    45    39     8   ar
@<TRIPOS>GENERATIONS
0	0
1	0
2	0
3	0
4	0
5	0
6	0
7	0
8	0
9	0
10	0
11	0
12	0
13	0
14	0
15	0
16	0
17	0
18	0
19	0
20	0
21	0
22	0
23	0
24	0
25	0
26	0
27	0
28	0
29	0
30	0
31	0
32	0
33	0
34	0
35	0
36	0
37	0
38	0
39	0
40	0
41	0
42	0
43	0
44	0
45	0
46	0
47	0
48	0
49	0
50	0
51	0
52	0
53	0
54	0
55	0
56	0
57	0
58	0
59	0
60	0
61	0
62	0
63	0
64	0
65	0
66	0
67	0
68	0
69	0
70	0
71	0
72	0
73	0
74	0
75	0
76	0
77	0
78	0
79	0
80	0
81	0
82	0
83	0
84	0
85	0
86	0
87	0
88	0
89	0
90	0
91	0
92	0
93	0
94	0
95	0
96	0
97	0
98	0
99	0
100	0
