
#######################################################################
#
#                 Cambridge Crystallographic Data Centre
#                                CCDC 
#
#######################################################################
#
# If this CIF has been generated from an entry in the Cambridge 
# Structural Database, then it will include bibliographic, chemical, 
# crystal, experimental, refinement or atomic coordinate data resulting 
# from the CCDC's data processing and validation procedures.
#
#######################################################################

data_added_by_encifer
_chemical_name_systematic        hrmc_f05-Ti3SiC2.xyz
_symmetry_cell_setting           triclinic
_symmetry_space_group_name_H-M   'P 1'
_symmetry_Int_Tables_number      1
_space_group_name_Hall           'P 1'
loop_
_symmetry_equiv_pos_site_id
_symmetry_equiv_pos_as_xyz
1 x,y,z
_cell_length_a                   29.50000
_cell_length_b                   29.80000
_cell_length_c                   38.00000
_cell_angle_alpha                90
_cell_angle_beta                 90
_cell_angle_gamma                90
_cell_volume                     33405.8
_cell_formula_units_Z            1
loop_
_atom_site_label
_atom_site_type_symbol
_atom_site_fract_x
_atom_site_fract_y
_atom_site_fract_z
C C 1.083661 0.117718 0.921658
C_2 C 1.036576 0.099530 0.918474
C_3 C 1.031864 0.057550 0.902263
C_4 C 1.080169 0.041711 0.885026
C_5 C 1.106746 0.117349 0.858684
C_6 C 1.131729 0.115570 0.915158
C_7 C 1.113051 0.075000 0.876526
C_8 C 1.181627 0.255470 1.010579
C_9 C 1.154576 0.142047 0.890842
C_10 C 0.318373 0.165839 0.911684
C_11 C 0.281356 0.259564 0.018921
C_12 C 0.462610 1.069396 0.938474
C_13 C 0.406373 0.949430 0.894368
C_14 C 0.478034 0.100034 0.891684
C_15 C 0.418814 0.215503 0.917026
C_16 C 0.443153 0.987651 0.911026
C_17 C 0.449966 0.201141 0.966500
C_18 C 0.432542 0.164664 0.939553
C_19 C 0.466644 0.130168 0.929632
C_20 C 0.535525 0.951879 0.912947
C_21 C 0.520915 0.069094 0.904842
C_22 C 0.577627 0.045302 0.905316
C_23 C 0.561220 0.993792 0.924421
C_24 C 0.430949 0.227550 0.027395
C_25 C 0.643356 0.117148 0.943789
C_26 C 0.709119 0.963960 0.884947
C_27 C 0.685932 0.024530 0.876289
C_28 C 0.728576 0.121879 0.943184
C_29 C 0.698034 0.085940 0.958000
C_30 C 0.672102 0.052248 0.931605
C_31 C 0.826339 0.088557 0.923579
C_32 C 0.772542 0.095470 0.919947
C_33 C 0.835763 0.052181 0.899737
C_34 C 0.920441 0.112450 0.924947
C_35 C 0.867322 0.022450 0.904816
C_36 C 0.932746 0.018054 0.898605
C_37 C 0.998373 0.118926 0.924737
C_38 C 0.958949 0.088993 0.917737
C_39 C 0.968373 0.051342 0.896711
C_40 C 0.948610 0.308926 0.937711
C_41 C 0.057186 0.062752 0.128105
C_42 C 1.085458 0.149564 0.877974
C_43 C 1.154712 0.329295 0.901158
C_44 C 1.124847 0.187651 0.883289
C_45 C 1.154915 0.267584 0.886237
C_46 C 1.133797 0.228926 0.908368
C_47 C 0.321627 0.276711 0.968789
C_48 C 0.315729 0.284966 0.933316
C_49 C 0.265932 0.289262 0.913842
C_50 C 0.331763 0.203087 0.912184
C_51 C 0.353932 0.300940 0.991395
C_52 C 0.355254 0.279161 0.910053
C_53 C 0.365288 0.233523 0.909079
C_54 C 0.511322 0.260604 0.888342
C_55 C 0.472373 0.246275 0.943895
C_56 C 0.591898 0.270738 0.918790
C_57 C 0.549830 0.253859 0.927895
C_58 C 0.519593 0.261711 0.956368
C_59 C 0.679119 0.254396 0.922447
C_60 C 0.647322 0.279094 0.943105
C_61 C 0.645017 0.305705 0.008974
C_62 C 0.761424 0.256007 0.920553
C_63 C 0.716407 0.213792 0.934974
C_64 C 0.697153 0.170537 0.938026
C_65 C 0.840814 0.236342 0.939053
C_66 C 0.804610 0.269027 0.928210
C_67 C 0.776373 0.275973 0.021895
C_68 C 0.935085 0.262416 0.983105
C_69 C 0.849017 0.132315 0.930500
C_70 C 0.884068 0.254430 0.948684
C_71 C 0.900712 0.175369 0.953158
C_72 C 0.961661 0.386141 0.980816
C_73 C 0.971966 0.238591 0.962474
C_74 C 0.958000 0.191913 0.948447
C_75 C 0.985864 0.157248 0.940711
C_76 C 0.976780 0.275201 0.940447
C_77 C 1.129017 0.350570 0.925789
C_78 C 0.947492 0.428557 0.991605
C_79 C 0.838237 0.187919 0.948316
C_80 C 1.212068 0.260503 0.885053
C_81 C 0.150068 0.417416 0.939579
C_82 C 1.203220 0.308255 0.911947
C_83 C 1.230203 0.241913 0.926000
C_84 C 0.414576 0.402081 0.966342
C_85 C 0.291932 0.488826 0.928789
C_86 C 0.409763 0.280772 0.933895
C_87 C 0.419492 0.406074 0.899184
C_88 C 0.437390 0.305537 0.916132
C_89 C 0.475932 0.239161 0.902632
C_90 C 0.500915 0.403926 0.896868
C_91 C 0.462441 0.381107 0.901184
C_92 C 0.468339 0.331678 0.898263
C_93 C 0.507831 0.310973 0.887132
C_94 C 0.586644 0.412383 0.895605
C_95 C 0.544644 0.383993 0.895605
C_96 C 0.545763 0.338825 0.883579
C_97 C 0.591830 0.305839 0.895868
C_98 C 0.664746 0.410738 0.905500
C_99 C 0.626170 0.386275 0.901974
C_100 C 0.632441 0.338389 0.908500
C_101 C 0.649254 0.322752 0.941711
C_102 C 0.749119 0.410134 0.907921
C_103 C 0.703593 0.388523 0.913974
C_104 C 0.725864 0.287181 0.908605
C_105 C 0.836237 0.403758 0.906947
C_106 C 0.791525 0.387081 0.911842
C_107 C 0.735288 0.335403 0.908421
C_108 C 0.916610 0.402617 0.900289
C_109 C 0.876203 0.381342 0.910447
C_110 C 0.866475 0.333423 0.922737
C_111 C 0.980136 0.402752 0.937868
C_112 C 0.024441 0.434698 0.920184
C_113 C 0.951695 0.390436 0.915763
C_114 C 1.164678 0.295839 1.004605
C_115 C 0.073390 0.537819 0.889053
C_116 C 0.032305 0.517483 0.890605
C_117 C 0.075288 0.441141 0.929211
C_118 C 0.159661 0.542013 0.894289
C_119 C 0.116136 0.520403 0.900579
C_120 C 0.113898 0.479128 0.916158
C_121 C 0.157966 0.462081 0.927237
C_122 C 0.244203 0.547248 0.902132
C_123 C 0.203831 0.525302 0.913658
C_124 C 0.202068 0.482819 0.925842
C_125 C 0.288712 0.530168 0.910500
C_126 C 0.283932 0.619933 0.886842
C_127 C 0.333153 0.462349 0.924579
C_128 C 0.413932 0.546678 0.888158
C_129 C 0.366203 0.524497 0.889921
C_130 C 0.369525 0.475671 0.900842
C_131 C 0.416475 0.451879 0.902684
C_132 C 0.493458 0.554161 0.899868
C_133 C 0.456000 0.526275 0.900237
C_134 C 0.460339 0.477987 0.897105
C_135 C 0.500881 0.454497 0.900658
C_136 C 0.588915 0.550973 0.899474
C_137 C 0.538170 0.526611 0.902868
C_138 C 0.544712 0.481074 0.901026
C_139 C 0.586780 0.465034 0.899737
C_140 C 0.706542 0.526309 0.902789
C_141 C 0.640373 0.528624 0.896605
C_142 C 0.630881 0.486611 0.896684
C_143 C 0.749966 0.549262 0.899763
C_144 C 0.665864 0.456711 0.898158
C_145 C 0.709186 0.480000 0.901368
C_146 C 0.750203 0.452919 0.905316
C_147 C 0.825864 0.547584 0.884316
C_148 C 0.790068 0.524866 0.897105
C_149 C 0.793254 0.476510 0.899553
C_150 C 0.836339 0.449564 0.895895
C_151 C 0.910678 0.541242 0.873158
C_152 C 0.872441 0.516342 0.879658
C_153 C 0.875695 0.470034 0.888816
C_154 C 0.913458 0.450000 0.894132
C_155 C 0.992915 0.544396 0.879158
C_156 C 0.951119 0.522013 0.883211
C_157 C 0.955593 0.474832 0.889737
C_158 C 0.005797 0.472550 0.899184
C_159 C 0.047898 0.654362 0.866632
C_160 C 0.037288 0.607819 0.869763
C_161 C 0.074373 0.583591 0.877737
C_162 C 0.155729 0.672013 0.862211
C_163 C 0.116576 0.603826 0.874263
C_164 C 0.157695 0.585201 0.882947
C_165 C 0.241186 0.682081 0.870684
C_166 C 0.198780 0.653054 0.870158
C_167 C 0.199051 0.610940 0.879474
C_168 C 0.240339 0.593322 0.891921
C_169 C 0.289051 0.661376 0.877237
C_170 C 0.285831 0.709128 0.789947
C_171 C 0.325356 0.594497 0.887342
C_172 C 0.427559 0.668490 0.892342
C_173 C 0.371186 0.663356 0.884316
C_174 C 0.369729 0.616174 0.878816
C_175 C 0.489119 0.602584 0.896079
C_176 C 0.511627 0.699161 0.885842
C_177 C 0.408712 0.589698 0.888737
C_178 C 0.443729 0.621846 0.890816
C_179 C 0.591763 0.690369 0.881368
C_180 C 0.551085 0.669262 0.879316
C_181 C 0.543492 0.624698 0.890211
C_182 C 0.583661 0.602819 0.885184
C_183 C 0.675220 0.683289 0.869789
C_184 C 0.628102 0.664429 0.872211
C_185 C 0.614712 0.623658 0.862316
C_186 C 0.749831 0.683054 0.886474
C_187 C 0.713186 0.658423 0.872500
C_188 C 0.709966 0.616678 0.912816
C_189 C 0.749525 0.594597 0.898132
C_190 C 0.837932 0.691544 0.872579
C_191 C 0.791525 0.665403 0.876921
C_192 C 0.787559 0.617349 0.884395
C_193 C 0.828644 0.591678 0.877000
C_194 C 0.917695 0.682416 0.862763
C_195 C 0.873729 0.662617 0.867237
C_196 C 0.866881 0.615705 0.870026
C_197 C 0.911932 0.588993 0.861237
C_198 C 0.002712 0.686342 0.862421
C_199 C 0.957797 0.660201 0.861132
C_200 C 0.959593 0.613725 0.856026
C_201 C 0.996508 0.586980 0.870053
C_202 C 0.071593 0.823624 0.900105
C_203 C 0.152881 0.811711 0.886605
C_204 C 0.120169 0.780000 0.886053
C_205 C 0.109932 0.755403 0.861974
C_206 C 0.155797 0.721275 0.846974
C_207 C 0.233153 0.826913 0.877474
C_208 C 0.195661 0.799295 0.874395
C_209 C 0.199966 0.759060 0.856553
C_210 C 0.237627 0.730336 0.870184
C_211 C 0.318678 0.820638 0.881789
C_212 C 0.273729 0.803054 0.878763
C_213 C 0.275390 0.758188 0.875263
C_214 C 0.334373 0.692584 0.883553
C_215 C 0.399322 0.814060 0.885895
C_216 C 0.358339 0.787819 0.885263
C_217 C 0.324034 0.737852 0.881868
C_218 C 0.452678 0.760906 0.907368
C_219 C 0.490746 0.904597 0.811421
C_220 C 0.444339 0.800906 0.888816
C_221 C 0.472610 0.836611 0.895000
C_222 C 0.582712 0.835403 0.900947
C_223 C 0.517864 0.831913 0.909947
C_224 C 0.557627 0.758490 0.881342
C_225 C 0.589763 0.738456 0.880053
C_226 C 0.547017 0.851611 0.827000
C_227 C 0.629356 0.807718 0.909658
C_228 C 0.632068 0.763926 0.887737
C_229 C 0.678949 0.735168 0.889632
C_230 C 0.771492 0.877987 0.873763
C_231 C 0.778746 0.894430 0.825579
C_232 C 0.721424 0.658557 0.928184
C_233 C 0.850814 0.825872 0.877447
C_234 C 0.798508 0.828121 0.875816
C_235 C 0.850169 0.736980 0.865184
C_236 C 0.999356 0.780638 0.867237
C_237 C 0.907966 0.801477 0.871316
C_238 C 0.898170 0.757013 0.870684
C_239 C 0.995898 0.909396 0.804132
C_240 C 0.930475 0.728523 0.865921
C_241 C 0.983559 0.739262 0.862158
C_242 C 1.085322 -0.006376 0.872763
C_243 C 1.047186 -0.032651 0.877974
C_244 C 1.047492 -0.073758 0.886605
C_245 C 0.111831 0.846644 0.913447
C_246 C 0.149390 0.912987 0.845211
C_247 C 0.114678 0.937718 0.874211
C_248 C 0.129627 0.894027 0.906684
C_249 C 0.176034 0.907315 0.888026
C_250 C 0.272746 0.895839 0.895868
C_251 C 0.318068 0.917282 0.925947
C_252 C 0.227661 0.875034 0.884553
C_253 C 0.323593 0.867550 0.885342
C_254 C 0.484305 0.948926 0.914789
C_255 C 0.368949 0.934094 0.914816
C_256 C 0.368712 0.873221 0.909053
C_257 C 0.369492 0.853523 0.953553
C_258 C 0.433458 0.872148 0.887316
C_259 C 0.441525 0.916779 0.890263
C_260 C 0.560475 0.930671 0.839895
C_261 C 0.534271 0.895872 0.826816
C_262 C 0.585390 0.877919 0.883105
C_263 C 0.705017 0.052181 0.902395
C_264 C 0.715356 0.964799 0.848500
C_265 C 0.538237 0.791745 0.928474
C_266 C 0.752068 0.054262 0.906921
C_267 C 0.742407 0.950973 0.902816
C_268 C 0.751729 0.907651 0.910026
C_269 C 0.849797 0.978591 0.913921
C_270 C 0.808441 0.960940 0.912790
C_271 C 0.810102 0.907718 0.914974
C_272 C 0.848136 0.876376 0.888737
C_273 C 0.933153 0.969765 0.906974
C_274 C 0.884475 0.895302 0.910211
C_275 C 0.932712 0.897148 0.890605
C_276 C 0.949966 0.941577 0.887316
C_277 C 0.960441 0.866208 0.868474
C_278 C 0.995898 0.907819 0.846237
C_279 C 0.492881 0.251879 1.016500
C_280 C 0.536000 0.258960 0.993684
C_281 C 0.765525 0.234966 0.058658
C_282 C 0.818169 0.314933 0.919474
C_283 C 0.930475 0.343758 0.998316
C_284 C 0.779627 0.035201 0.880263
C_285 C 0.094169 0.261946 0.102395
C_286 C 0.188305 0.193289 0.149632
C_287 C 0.330576 0.121544 0.113158
C_288 C 0.412847 0.120336 0.121500
C_289 C 0.414712 0.041812 0.159184
C_290 C 0.367661 0.100369 0.122447
C_291 C 0.499797 0.122081 0.122237
C_292 C 0.458305 0.099161 0.125184
C_293 C 0.370102 0.057852 0.143342
C_294 C 0.552136 0.978154 0.164395
C_295 C 0.584102 0.119027 0.124895
C_296 C 0.539254 0.099765 0.127737
C_297 C 0.517830 0.054128 0.159974
C_298 C 0.653390 0.064295 0.129605
C_299 C 0.692644 0.137349 0.105895
C_300 C 0.636136 0.105034 0.118132
C_301 C 0.770000 0.147047 0.125474
C_302 C 0.722576 0.101577 0.113316
C_303 C 0.699593 0.057987 0.120395
C_304 C 0.837356 0.135940 0.087289
C_305 C 0.798542 0.112081 0.104605
C_306 C 0.779695 0.077819 0.082711
C_307 C 0.831593 0.052617 0.060263
C_308 C 0.879525 0.113389 0.075316
C_309 C 0.874610 0.067483 0.070342
C_310 C 0.916644 0.042651 0.069211
C_311 C 0.002203 0.128926 0.092868
C_312 C 0.964475 0.109799 0.083737
C_313 C 0.957322 0.064631 0.081447
C_314 C 0.058814 0.236074 0.086632
C_315 C 0.044678 0.193993 0.098053
C_316 C 0.080712 0.174732 0.122079
C_317 C 0.206983 0.259094 0.115237
C_318 C 0.135525 0.240034 0.108053
C_319 C 0.245525 0.285503 0.123237
C_320 C 0.218847 0.203591 0.121000
C_321 C 0.269458 0.206040 0.125895
C_322 C 0.407288 0.251711 0.052842
C_323 C 0.294000 0.259866 0.123184
C_324 C 0.295729 0.185201 0.094447
C_325 C 0.330983 0.161544 0.099368
C_326 C 0.313390 0.230436 0.075763
C_327 C 0.378983 0.227584 0.073816
C_328 C 0.376102 0.183691 0.091263
C_329 C 0.420305 0.162315 0.103711
C_330 C 0.503593 0.263456 0.121526
C_331 C 0.456203 0.185738 0.113895
C_332 C 0.498508 0.166812 0.121579
C_333 C 0.591898 0.268725 0.124158
C_334 C 0.547220 0.244698 0.130605
C_335 C 0.540983 0.192114 0.129921
C_336 C 0.579051 0.164564 0.140658
C_337 C 0.671186 0.282013 0.131974
C_338 C 0.631559 0.257584 0.139342
C_339 C 0.712407 0.171779 0.092684
C_340 C 0.777830 0.255436 0.092342
C_341 C 0.803831 0.206678 0.115868
C_342 C 0.744136 0.187718 0.115342
C_343 C 0.846407 0.284463 0.079684
C_344 C 0.802136 0.289564 0.098026
C_345 C 0.839051 0.182383 0.093053
C_346 C 0.927593 0.275738 0.088342
C_347 C 0.888271 0.254094 0.091974
C_348 C 0.886746 0.204564 0.085632
C_349 C 0.922508 0.179866 0.083974
C_350 C 0.009797 0.279732 0.090263
C_351 C 0.966949 0.254094 0.091684
C_352 C 0.962644 0.206879 0.087316
C_353 C 0.001322 0.178557 0.096026
C_354 C 0.023763 0.408691 0.158184
C_355 C 0.076814 0.298188 0.124079
C_356 C 0.166102 0.268893 0.129632
C_357 C 0.842542 0.324765 0.025658
C_358 C 0.332847 0.350503 0.074000
C_359 C 0.312847 0.366577 0.099842
C_360 C 0.233864 0.385872 0.210711
C_361 C 0.125186 0.180168 0.118053
C_362 C 0.359797 0.391846 0.124237
C_363 C 0.260814 0.336342 0.152316
C_364 C 0.302237 0.328792 0.131184
C_365 C 0.422780 0.398591 0.091053
C_366 C 0.386407 0.377785 0.098605
C_367 C 0.361356 0.310403 0.138842
C_368 C 0.502475 0.397282 0.090316
C_369 C 0.463627 0.377148 0.091237
C_370 C 0.460983 0.334966 0.097684
C_371 C 0.503288 0.312081 0.109684
C_372 C 0.582169 0.407248 0.092526
C_373 C 0.545627 0.376141 0.091605
C_374 C 0.546339 0.331141 0.103263
C_375 C 0.587525 0.313154 0.112763
C_376 C 0.662949 0.408154 0.092947
C_377 C 0.619898 0.384329 0.097158
C_378 C 0.620780 0.340403 0.102605
C_379 C 0.662847 0.322852 0.118237
C_380 C 0.746712 0.416577 0.095053
C_381 C 0.701424 0.389966 0.093605
C_382 C 0.701864 0.349497 0.112816
C_383 C 0.829559 0.416409 0.099184
C_384 C 0.786576 0.390570 0.098553
C_385 C 0.780983 0.347718 0.114053
C_386 C 0.742407 0.337819 0.131763
C_387 C 0.913763 0.423356 0.106895
C_388 C 0.873458 0.391141 0.100816
C_389 C 0.882949 0.343087 0.100447
C_390 C 0.929763 0.324765 0.099842
C_391 C 0.003559 0.338658 0.131053
C_392 C 0.027661 0.305872 0.118868
C_393 C 0.067898 0.567114 0.096737
C_394 C 0.029288 0.547248 0.108053
C_395 C 0.073729 0.483725 0.131447
C_396 C 0.153966 0.559195 0.101816
C_397 C 0.109695 0.540839 0.103711
C_398 C 0.108475 0.498020 0.115000
C_399 C 0.144610 0.474128 0.112526
C_400 C 0.236814 0.548691 0.090105
C_401 C 0.192949 0.528758 0.098447
C_402 C 0.185017 0.485101 0.097842
C_403 C 0.229525 0.447752 0.119316
C_404 C 0.312373 0.457852 0.111605
C_405 C 0.355017 0.435235 0.123342
C_406 C 0.421763 0.539564 0.046632
C_407 C 0.285898 0.530369 0.074658
C_408 C 0.373458 0.472450 0.085368
C_409 C 0.418305 0.441007 0.078474
C_410 C 0.497797 0.537685 0.065211
C_411 C 0.459288 0.511913 0.067947
C_412 C 0.462237 0.465805 0.073263
C_413 C 0.506339 0.448188 0.082026
C_414 C 0.567831 0.558993 0.072316
C_415 C 0.541390 0.519564 0.074526
C_416 C 0.545051 0.474765 0.079500
C_417 C 0.585458 0.452987 0.082289
C_418 C 0.699322 0.528087 0.064474
C_419 C 0.640678 0.525034 0.074237
C_420 C 0.629525 0.480805 0.084684
C_421 C 0.745424 0.561510 0.053605
C_422 C 0.669593 0.455302 0.083842
C_423 C 0.709492 0.483020 0.078263
C_424 C 0.750237 0.458020 0.078605
C_425 C 0.830339 0.552416 0.070395
C_426 C 0.790814 0.530638 0.069579
C_427 C 0.793695 0.482081 0.079895
C_428 C 0.833593 0.460604 0.089211
C_429 C 0.905254 0.559698 0.089132
C_430 C 0.873051 0.531846 0.082079
C_431 C 0.873322 0.488826 0.093368
C_432 C 0.912170 0.470671 0.106842
C_433 C 0.986034 0.569128 0.101237
C_434 C 0.949254 0.541175 0.102079
C_435 C 0.950915 0.495101 0.111737
C_436 C 0.224102 0.618758 0.014789
C_437 C 0.109458 0.639195 0.093737
C_438 C 0.064644 0.613221 0.083737
C_439 C 0.015356 0.642919 0.082737
C_440 C 0.158983 0.606812 0.103316
C_441 C 0.264203 0.677215 0.060421
C_442 C 0.238949 0.580000 0.002316
C_443 C 0.237322 0.589933 0.079605
C_444 C 0.171458 0.637919 0.180184
C_445 C 0.322034 0.684362 0.057789
C_446 C 0.344847 0.579161 0.045237
C_447 C 0.274610 0.557886 0.015579
C_448 C 0.406610 0.684396 0.060158
C_449 C 0.364373 0.657181 0.057316
C_450 C 0.376136 0.608591 0.051684
C_451 C 0.421695 0.584866 0.052263
C_452 C 0.497695 0.676074 0.052263
C_453 C 0.456136 0.658859 0.052684
C_454 C 0.459186 0.611812 0.057342
C_455 C 0.578407 0.670839 0.043342
C_456 C 0.534237 0.651107 0.039658
C_457 C 0.488542 0.589497 0.975000
C_458 C 0.506983 0.582852 0.059632
C_459 C 0.664203 0.678893 0.040158
C_460 C 0.615322 0.646208 0.061737
C_461 C 0.611898 0.565403 0.069289
C_462 C 0.746237 0.684698 0.050421
C_463 C 0.708339 0.659866 0.034263
C_464 C 0.709153 0.608255 0.018632
C_465 C 0.671831 0.587114 0.999605
C_466 C 0.830814 0.688188 0.064895
C_467 C 0.787254 0.660973 0.054316
C_468 C 0.788237 0.615436 0.051289
C_469 C 0.912780 0.698893 0.069447
C_470 C 0.873729 0.669698 0.069342
C_471 C 0.864678 0.621812 0.066237
C_472 C 0.904576 0.600537 0.074763
C_473 C 0.957322 0.674933 0.073026
C_474 C 0.942610 0.627919 0.081447
C_475 C 0.982508 0.605168 0.083316
C_476 C 0.019797 0.863188 0.055132
C_477 C 0.036339 0.939530 0.055921
C_478 C 0.155119 0.827181 0.058605
C_479 C 0.152000 0.847483 0.026500
C_480 C 0.230847 0.630604 0.052947
C_481 C 0.237356 0.831141 0.076263
C_482 C 0.199932 0.806711 0.068211
C_483 C 0.202203 0.758893 0.065895
C_484 C 0.248712 0.733456 0.071868
C_485 C 0.325831 0.829866 0.076184
C_486 C 0.281424 0.809899 0.076105
C_487 C 0.287322 0.763658 0.064526
C_488 C 0.326712 0.733725 0.061368
C_489 C 0.403254 0.825604 0.073158
C_490 C 0.363119 0.805369 0.071579
C_491 C 0.362305 0.755906 0.062105
C_492 C 0.401593 0.735134 0.053684
C_493 C 0.490881 0.824732 0.046737
C_494 C 0.475661 0.737148 1.009921
C_495 C 0.502644 0.724262 0.055447
C_496 C 0.573153 0.813859 0.023684
C_497 C 0.534034 0.793389 0.038105
C_498 C 0.537017 0.742886 0.044105
C_499 C 0.577390 0.715705 0.045026
C_500 C 0.642271 0.847483 0.004237
C_501 C 0.610780 0.785201 0.020553
C_502 C 0.619797 0.743725 0.036711
C_503 C 0.664712 0.716846 0.058763
C_504 C 0.583322 0.019430 0.153868
C_505 C 0.736576 0.727383 0.063158
C_506 C 0.819627 0.829060 0.061184
C_507 C 0.776136 0.806846 0.065658
C_508 C 0.824508 0.735168 0.068895
C_509 C 0.898170 0.821242 0.062763
C_510 C 0.856780 0.803691 0.060737
C_511 C 0.859966 0.760940 0.078211
C_512 C 0.945898 0.795201 0.065158
C_513 C 0.909729 0.746477 0.071579
C_514 C 0.074237 0.895638 0.062342
C_515 C 0.242339 0.877785 0.089474
C_516 C 0.131932 0.730671 1.021632
C_517 C 0.117424 0.895570 0.046105
C_518 C 0.209797 0.916779 0.080263
C_519 C 0.364136 0.000503 0.133237
C_520 C 0.298712 0.972383 0.089263
C_521 C 0.261153 0.947752 0.092316
C_522 C 0.338644 0.965604 0.100868
C_523 C 0.285661 0.888725 0.095368
C_524 C 0.328102 0.872785 0.079816
C_525 C 0.426271 0.931040 0.117158
C_526 C 0.374339 0.939161 0.083553
C_527 C 0.367966 0.898188 0.069158
C_528 C 0.404203 0.881510 0.046921
C_529 C 0.443051 0.891544 0.040342
C_530 C 0.479153 0.868658 0.040658
C_531 C 0.452305 0.899362 0.102816
C_532 C 0.472915 0.862953 0.092263
C_533 C 0.598746 0.861477 -0.006079
C_534 C 0.814847 0.008490 0.053263
C_535 C 0.447559 0.821409 0.084947
C_536 C 0.773085 0.032215 0.090553
C_537 C 0.999186 0.042517 0.085395
C_538 C 0.883797 0.962617 0.070500
C_539 C 0.793627 0.996913 0.104526
C_540 C 0.840881 0.977282 0.072605
C_541 C 0.857051 0.873221 0.085342
C_542 C 0.919017 0.992114 0.071237
C_543 C 0.889593 0.904597 0.070342
C_544 C 0.933627 0.892148 0.061395
C_545 C 0.961322 0.976678 0.063211
C_546 C 0.957729 0.927349 0.054263
C_547 C 0.005831 0.909329 0.046000
C_548 C 0.074373 0.186141 0.170447
C_549 C 0.958949 0.151711 0.211526
C_550 C 0.972237 0.195403 0.188737
C_551 C 0.159559 0.119765 0.216553
C_552 C 0.264542 0.168389 0.220632
C_553 C 0.215390 0.127282 0.225342
C_554 C 0.097254 0.085067 0.180737
C_555 C 0.340508 0.174195 0.209263
C_556 C 0.308034 0.157584 0.230684
C_557 C 0.376949 0.088221 0.255421
C_558 C 0.431254 0.190705 0.196526
C_559 C 0.383492 0.156007 0.209553
C_560 C 0.387627 0.107248 0.214921
C_561 C 0.417458 0.079262 0.198526
C_562 C 0.467356 0.186141 0.213132
C_563 C 0.497119 0.075705 0.213895
C_564 C 0.440305 0.059295 0.229184
C_565 C 0.517797 0.042550 0.195474
C_566 C 0.540271 0.210268 0.196711
C_567 C 0.507220 0.168624 0.194605
C_568 C 0.639695 0.137483 0.210868
C_569 C 0.630644 0.024430 0.137921
C_570 C 0.694475 0.112315 0.215579
C_571 C 0.794034 0.123658 0.203526
C_572 C 0.649661 0.178993 0.220789
C_573 C 0.730610 0.140973 0.216342
C_574 C 0.757288 0.150839 0.245132
C_575 C 0.851492 0.218356 0.155316
C_576 C 0.807966 0.190067 0.168211
C_577 C 0.822271 0.151275 0.187553
C_578 C 0.885729 0.151577 0.180474
C_579 C 0.933797 0.217148 0.176763
C_580 C 0.889695 0.193456 0.164447
C_581 C 0.912610 0.139060 0.211237
C_582 C 0.102780 0.302718 0.166053
C_583 C 0.055559 0.300570 0.201684
C_584 C 0.049085 0.260470 0.184816
C_585 C 0.089322 0.234597 0.180842
C_586 C 0.126203 0.296242 0.213395
C_587 C 0.121831 0.238591 0.204316
C_588 C 0.151220 0.208389 0.206816
C_589 C 0.249288 0.311611 0.185553
C_590 C 0.218136 0.264027 0.170079
C_591 C 0.217695 0.225201 0.189000
C_592 C 0.257661 0.219463 0.211158
C_593 C 0.328034 0.345738 0.212658
C_594 C 0.289966 0.294228 0.200763
C_595 C 0.290915 0.247651 0.201289
C_596 C 0.337051 0.225067 0.202500
C_597 C 0.355085 0.347752 0.262289
C_598 C 0.337763 0.275470 0.157184
C_599 C 0.363898 0.237584 0.176132
C_600 C 0.413695 0.239530 0.182000
C_601 C 0.425627 0.300268 0.078579
C_602 C 0.403593 0.298087 0.124974
C_603 C 0.432610 0.264664 0.153237
C_604 C 0.464475 0.242685 0.138368
C_605 C 0.684847 0.351946 0.189526
C_606 C 0.626610 0.543255 0.388289
C_607 C 0.589593 0.199228 0.181263
C_608 C 0.613559 0.312550 0.276947
C_609 C 0.700000 0.309396 0.174553
C_610 C 0.632373 0.227081 0.166921
C_611 C 0.678610 0.207047 0.201053
C_612 C 0.727458 0.263322 0.225842
C_613 C 0.688170 0.248154 0.215447
C_614 C 0.743254 0.307282 0.156684
C_615 C 0.789220 0.245101 0.190000
C_616 C 0.836746 0.433624 0.267395
C_617 C 0.835356 0.262081 0.192711
C_618 C 0.860136 0.252215 0.222500
C_619 C 0.906847 0.248490 0.214789
C_620 C 0.058542 0.351376 0.182289
C_621 C 0.921864 0.290604 0.295816
C_622 C 0.028814 0.503523 0.126079
C_623 C 0.273085 0.450638 0.138026
C_624 C 0.074237 0.364228 0.298053
C_625 C 0.106271 0.413825 0.301079
C_626 C 0.023119 0.364698 0.160211
C_627 C 0.161458 0.311812 0.236184
C_628 C 0.192373 0.327181 0.213026
C_629 C 0.377966 0.342852 0.213842
C_630 C 0.396610 0.377383 0.277263
C_631 C 0.172102 0.307013 0.171658
C_632 C 0.193322 0.374698 0.214289
C_633 C 0.321288 0.505671 0.093263
C_634 C 0.087119 0.183221 0.262000
C_635 C 0.955729 0.161678 0.267868
C_636 C 1.048068 0.172685 0.220237
C_637 C 1.016881 0.208389 0.197158
C_638 C 0.164508 0.182349 0.259526
C_639 C 0.124407 0.158523 0.254579
C_640 C 0.746102 0.359497 0.186632
C_641 C 0.254034 0.177886 0.275632
C_642 C 0.209119 0.154463 0.259184
C_643 C 1.088475 0.117718 0.223579
C_644 C 0.337356 0.184295 0.284263
C_645 C 0.298814 0.156174 0.280474
C_646 C 0.442000 0.087953 0.277711
C_647 C 0.416000 0.186007 0.298158
C_648 C 0.379254 0.164329 0.287553
C_649 C 0.383288 0.117148 0.285921
C_650 C 0.408373 0.038826 0.266737
C_651 C 0.498068 0.201040 0.299474
C_652 C 0.458373 0.170000 0.294026
C_653 C 0.472102 0.125403 0.292684
C_654 C 0.537729 0.232584 0.240895
C_655 C 0.464983 0.061443 0.146974
C_656 C 0.623797 0.208054 0.240947
C_657 C 0.536000 0.165436 0.289921
C_658 C 0.653864 0.084128 0.243474
C_659 C 0.523559 0.122450 0.289711
C_660 C 0.839254 0.207785 0.246605
C_661 C 0.790068 0.186745 0.238079
C_662 C 0.809797 0.109866 0.237000
C_663 C 0.887119 0.113758 0.252842
C_664 C 0.897559 0.252617 0.278132
C_665 C 0.902339 0.161913 0.265263
C_666 C 0.851119 0.102383 0.248868
C_667 C 0.978475 0.198624 0.265658
C_668 C 0.879763 0.427651 0.260737
C_669 C 0.079864 0.317517 0.295737
C_670 C 0.041390 0.292550 0.295263
C_671 C 0.044915 0.246074 0.284868
C_672 C 0.087797 0.224228 0.275368
C_673 C 0.165695 0.317483 0.288421
C_674 C 0.124034 0.294094 0.292237
C_675 C 0.124407 0.246879 0.286658
C_676 C 0.165932 0.226376 0.282368
C_677 C 0.245085 0.322651 0.290500
C_678 C 0.205797 0.297752 0.291579
C_679 C 0.207695 0.250705 0.285711
C_680 C 0.249322 0.225000 0.292447
C_681 C 0.430780 0.357483 0.298474
C_682 C 0.292373 0.293993 0.292868
C_683 C 0.286576 0.248289 0.294789
C_684 C 0.334237 0.225470 0.297632
C_685 C 0.196915 0.428423 0.131553
C_686 C 0.371797 0.256275 0.292947
C_687 C 0.420915 0.233960 0.298447
C_688 C 0.457186 0.328188 0.290763
C_689 C 0.343322 0.305638 0.289605
C_690 C 0.469898 0.249463 0.296053
C_691 C 0.485559 0.296711 0.294842
C_692 C 0.544203 0.373658 0.333868
C_693 C 0.573119 0.329799 0.291079
C_694 C 0.531458 0.306812 0.279447
C_695 C 0.558847 0.268154 0.251658
C_696 C 0.661458 0.329765 0.283342
C_697 C 0.605356 0.280973 0.254605
C_698 C 0.637153 0.254430 0.246421
C_699 C 0.732847 0.304362 0.242868
C_700 C 0.708068 0.332450 0.260763
C_701 C 0.650136 0.047315 0.234737
C_702 C 0.765153 0.241309 0.214500
C_703 C 0.770034 0.376980 0.259447
C_704 C 0.807424 0.396409 0.275868
C_705 C 0.864949 0.193691 0.274605
C_706 C 0.923559 0.231040 0.250289
C_707 C 0.997424 0.311980 0.295395
C_708 C 0.915390 0.334161 0.289658
C_709 C 0.001695 0.226309 0.287763
C_710 C 0.075119 0.449866 0.310053
C_711 C 0.032712 0.432819 0.302947
C_712 C 0.032136 0.385940 0.290868
C_713 C 0.146814 0.421577 0.307895
C_714 C 0.178508 0.443289 0.329263
C_715 C 0.260407 0.450570 0.337237
C_716 C 0.223458 0.433960 0.315816
C_717 C 0.226305 0.399362 0.294763
C_718 C 0.255322 0.368792 0.292553
C_719 C 0.347797 0.445805 0.349368
C_720 C 0.325051 0.409430 0.301500
C_721 C 0.296000 0.375101 0.280868
C_722 C 0.422847 0.443154 0.360921
C_723 C 0.386034 0.422852 0.342368
C_724 C 0.308983 0.435168 0.329711
C_725 C 0.365593 0.405503 0.293816
C_726 C 0.507661 0.434799 0.365053
C_727 C 0.462610 0.419161 0.352763
C_728 C 0.462475 0.390705 0.325079
C_729 C 0.502169 0.368591 0.323105
C_730 C 0.510881 0.468758 0.389868
C_731 C 0.547525 0.409597 0.356763
C_732 C 0.590542 0.426174 0.368763
C_733 C 0.581797 0.355671 0.319816
C_734 C 0.627017 0.408893 0.353184
C_735 C 0.626000 0.367181 0.332132
C_736 C 0.666983 0.356946 0.312289
C_737 C 0.740780 0.446208 0.334868
C_738 C 0.701864 0.426074 0.334342
C_739 C 0.703932 0.385134 0.311684
C_740 C 0.733559 0.368993 0.281947
C_741 C 0.818678 0.448523 0.314132
C_742 C 0.777729 0.427282 0.315632
C_743 C 0.764678 0.358054 0.223474
C_744 C 0.920780 0.409933 0.294816
C_745 C 0.943729 0.365671 0.284447
C_746 C 0.963085 0.279430 0.300395
C_747 C 0.995390 0.457785 0.311000
C_748 C 0.946780 0.450201 0.312737
C_749 C 0.986780 0.359597 0.295421
C_750 C 0.086949 0.576779 0.371684
C_751 C 0.043254 0.558658 0.360132
C_752 C 0.045424 0.517114 0.338974
C_753 C 0.082712 0.497718 0.331947
C_754 C 0.171966 0.558792 0.386368
C_755 C 0.129288 0.547718 0.366763
C_756 C 0.127797 0.510268 0.348500
C_757 C 0.171661 0.485738 0.346763
C_758 C 0.252983 0.552752 0.404763
C_759 C 0.211932 0.535973 0.388763
C_760 C 0.214983 0.502819 0.363079
C_761 C 0.257525 0.484899 0.362711
C_762 C 0.341627 0.548960 0.413605
C_763 C 0.296373 0.527584 0.404079
C_764 C 0.297729 0.494262 0.383132
C_765 C 0.344407 0.479497 0.378342
C_766 C 0.427119 0.557919 0.412921
C_767 C 0.381966 0.523456 0.421579
C_768 C 0.377864 0.485067 0.397737
C_769 C 0.421017 0.465772 0.386526
C_770 C 0.504949 0.563020 0.408895
C_771 C 0.465966 0.539497 0.405763
C_772 C 0.471051 0.493523 0.401579
C_773 C 0.588136 0.566879 0.400579
C_774 C 0.548373 0.541376 0.401447
C_775 C 0.548983 0.492215 0.392474
C_776 C 0.667356 0.435906 0.356053
C_777 C 0.668915 0.565336 0.391526
C_778 C 0.588271 0.473221 0.381342
C_779 C 0.632203 0.495470 0.382053
C_780 C 0.666441 0.482215 0.367868
C_781 C 0.758847 0.568658 0.384895
C_782 C 0.707797 0.541711 0.380579
C_783 C 0.706881 0.503389 0.366553
C_784 C 0.748237 0.485503 0.348947
C_785 C 0.843424 0.560235 0.375053
C_786 C 0.799491 0.547919 0.367000
C_787 C 0.793830 0.504463 0.351158
C_788 C 0.826610 0.487550 0.328553
C_789 C 0.924576 0.554631 0.376763
C_790 C 0.882610 0.543423 0.358921
C_791 C 0.881051 0.502450 0.339632
C_792 C 0.929288 0.489329 0.327447
C_793 C 0.871695 0.427450 0.193763
C_794 C 0.961729 0.556208 0.356816
C_795 C 0.965593 0.518121 0.335974
C_796 C 0.182203 0.468792 0.510579
C_797 C 0.254305 0.595000 0.413553
C_798 C 0.126034 0.627081 0.403079
C_799 C 0.087356 0.612047 0.391711
C_800 C 0.170712 0.603389 0.401526
C_801 C 0.215051 0.669429 0.419421
C_802 C 0.215525 0.622349 0.414711
C_803 C 0.331288 0.690738 0.419763
C_804 C 0.289492 0.662987 0.421105
C_805 C 0.291559 0.616544 0.416842
C_806 C 0.339661 0.595738 0.419474
C_807 C 0.405119 0.696879 0.417132
C_808 C 0.369356 0.668725 0.425526
C_809 C 0.376203 0.624765 0.423026
C_810 C 0.424441 0.603624 0.421895
C_811 C 0.510000 0.690604 0.413947
C_812 C 0.460475 0.676879 0.423579
C_813 C 0.462339 0.626946 0.425737
C_814 C 0.499186 0.610101 0.413947
C_815 C 0.643390 0.738624 0.417789
C_816 C 0.536000 0.637181 0.417105
C_817 C 0.586034 0.613658 0.413605
C_818 C 0.660407 0.683624 0.424289
C_819 C 0.630441 0.631879 0.419000
C_820 C 0.669661 0.608255 0.414395
C_821 C 0.886000 0.680705 0.464737
C_822 C 0.569390 0.816476 0.354342
C_823 C 0.708136 0.640738 0.446842
C_824 C 0.759254 0.609765 0.389895
C_825 C 0.827322 0.661611 0.465263
C_826 C 0.787390 0.653792 0.436553
C_827 C 0.728949 0.678154 0.426632
C_828 C 0.897559 0.651443 0.438132
C_829 C 0.870034 0.617450 0.433526
C_830 C 0.839797 0.609262 0.403921
C_831 C 0.910339 0.592550 0.397263
C_832 C 0.968847 0.665369 0.435342
C_833 C 0.929830 0.627685 0.391842
C_834 C 0.004373 0.575503 0.366000
C_835 C 0.048983 0.638758 0.396342
C_836 C 0.050475 0.669463 0.414474
C_837 C 0.149864 0.163691 0.142632
C_838 C 0.160814 0.893154 0.067474
C_839 C 0.252508 0.683993 0.425868
C_840 C 0.345322 0.743893 0.407658
C_841 C 0.475424 0.748591 0.353500
C_842 C 0.225695 0.707617 0.534237
C_843 C 0.323729 0.777349 0.407421
C_844 C 0.991763 0.126007 0.233316
C_845 C 0.673492 0.721443 0.375921
C_846 C 0.307153 0.386040 0.230474
C_847 C 0.398237 0.742651 0.412395
C_848 C 0.484136 0.793356 0.372079
C_849 C 0.519017 0.729966 0.422184
C_850 C 0.516237 0.743691 0.325526
C_851 C 0.538508 0.795235 0.384553
C_852 C 0.558881 0.750973 0.417237
C_853 C 0.599356 0.726711 0.407684
C_854 C 0.520169 0.800000 0.331474
C_855 C 0.570000 0.753087 0.346000
C_856 C 0.597492 0.716107 0.357237
C_857 C 0.639051 0.714362 0.352658
C_858 C 0.082780 0.216376 0.656658
C_859 C 0.039763 0.208926 0.658053
C_860 C 0.100136 0.263322 0.655632
C_861 C 0.116576 0.158758 0.756868
C_862 C 0.171492 0.226342 0.663790
C_863 C 0.135356 0.194799 0.667816
C_864 C 0.168814 0.102248 0.690974
C_865 C 0.172373 0.145906 0.676184
C_866 C 0.256407 0.231644 0.659895
C_867 C 0.216780 0.209329 0.665579
C_868 C 0.217695 0.166208 0.670105
C_869 C 0.255627 0.140201 0.667632
C_870 C 0.337966 0.238322 0.670053
C_871 C 0.299186 0.215403 0.666842
C_872 C 0.296136 0.162148 0.673342
C_873 C 0.339627 0.139564 0.677132
C_874 C 0.422983 0.236376 0.676000
C_875 C 0.380203 0.215369 0.677684
C_876 C 0.374305 0.174262 0.691079
C_877 C 0.417966 0.132919 0.686237
C_878 C 0.464644 0.211913 0.674237
C_879 C 0.459525 0.169698 0.661526
C_880 C 0.621458 0.301074 0.661079
C_881 C 0.665830 0.225403 0.686500
C_882 C 0.583492 0.286275 0.664974
C_883 C 0.421153 0.154094 0.635237
C_884 C 0.665220 0.269463 0.670816
C_885 C 0.743763 0.163658 0.708290
C_886 C 0.509763 0.256745 0.674079
C_887 C 0.747017 0.230436 0.676000
C_888 C 0.707254 0.206174 0.687132
C_889 C 0.728610 0.126946 0.736290
C_890 C 0.829458 0.228825 0.666263
C_891 C 0.787627 0.210168 0.677658
C_892 C 0.790441 0.170268 0.696342
C_893 C 0.823458 0.139060 0.695737
C_894 C 0.911288 0.217550 0.652526
C_895 C 0.867322 0.199295 0.662053
C_896 C 0.861966 0.151107 0.673842
C_897 C 0.910814 0.105638 0.672895
C_898 C 0.997661 0.220403 0.649316
C_899 C 0.955390 0.189732 0.656395
C_900 C 0.935559 0.145940 0.683658
C_901 C 0.038271 0.374899 0.647026
C_902 C 0.066441 0.301846 0.651684
C_903 C 0.019559 0.303322 0.645158
C_904 C 0.149356 0.336208 0.649053
C_905 C 0.091593 0.342651 0.642368
C_906 C 0.160169 0.270336 0.659684
C_907 C 0.256644 0.367886 0.626395
C_908 C 0.210678 0.339262 0.633000
C_909 C 0.211119 0.297819 0.643395
C_910 C 0.252576 0.275705 0.656000
C_911 C 0.345288 0.366141 0.622447
C_912 C 0.298136 0.348658 0.636632
C_913 C 0.297254 0.299799 0.650974
C_914 C 0.341356 0.282315 0.660816
C_915 C 0.471186 0.386644 0.602553
C_916 C 0.383051 0.306040 0.655711
C_917 C 0.425085 0.282148 0.661605
C_918 C 0.479254 0.333389 0.642711
C_919 C 0.434508 0.351074 0.626684
C_920 C 0.472102 0.295168 0.661368
C_921 C 0.747424 0.418658 0.796368
C_922 C 0.602441 0.401174 0.591316
C_923 C 0.551085 0.266946 0.677605
C_924 C 0.652881 0.340973 0.633053
C_925 C 0.554508 0.389597 0.589684
C_926 C 0.519153 0.364195 0.617974
C_927 C 0.739424 0.351812 0.632868
C_928 C 0.699254 0.324966 0.640842
C_929 C 0.702780 0.284195 0.653526
C_930 C 0.744949 0.270503 0.663342
C_931 C 0.823627 0.355470 0.626132
C_932 C 0.786441 0.333456 0.638737
C_933 C 0.788136 0.292785 0.652605
C_934 C 0.829085 0.268322 0.653632
C_935 C 0.870136 0.290403 0.645579
C_936 C 0.910881 0.267349 0.649053
C_937 C 0.999288 0.347315 0.642421
C_938 C 0.943017 0.334161 0.630789
C_939 C 0.947797 0.288691 0.635684
C_940 C 0.991458 0.269732 0.643526
C_941 C 0.087492 0.468725 0.598947
C_942 C 0.089288 0.501443 0.574000
C_943 C -0.000475 0.467953 0.596895
C_944 C 0.049932 0.419430 0.647184
C_945 C 0.125051 0.447517 0.611316
C_946 C 0.108271 0.420302 0.652263
C_947 C 0.133661 0.380101 0.675605
C_948 C 0.241085 0.470201 0.572395
C_949 C 0.206847 0.449295 0.594737
C_950 C 0.250644 0.414396 0.614737
C_951 C 0.327254 0.463423 0.552684
C_952 C 0.285085 0.454631 0.571079
C_953 C 0.295220 0.424765 0.596816
C_954 C 0.408712 0.455805 0.540974
C_955 C 0.342305 0.410772 0.601789
C_956 C 0.367390 0.444933 0.565184
C_957 C 0.454780 0.441644 0.545737
C_958 C 0.491186 0.459866 0.527605
C_959 C 0.386271 0.344597 0.635237
C_960 C 0.473186 0.401174 0.568053
C_961 C 0.582305 0.453624 0.534895
C_962 C 0.535627 0.440034 0.540842
C_963 C 0.526983 0.404799 0.562026
C_964 C 0.696169 0.467148 0.559526
C_965 C 0.621695 0.437550 0.568316
C_966 C 0.670983 0.437450 0.575184
C_967 C 0.645729 0.378087 0.610316
C_968 C 0.741153 0.474564 0.563526
C_969 C 0.683830 0.400570 0.599289
C_970 C 0.733085 0.388893 0.612895
C_971 C 0.825458 0.454497 0.571895
C_972 C 0.771864 0.410805 0.600632
C_973 C 0.817763 0.396174 0.614553
C_974 C 0.869288 0.565436 0.529447
C_975 C 0.857220 0.487785 0.551000
C_976 C 0.890610 0.468624 0.593447
C_977 C 0.858712 0.419564 0.597921
C_978 C 0.908848 0.359463 0.618053
C_979 C 0.041525 0.448423 0.611632
C_980 C 0.868034 0.337148 0.630921
C_981 C 0.093898 0.592987 0.552237
C_982 C 0.044305 0.569597 0.555026
C_983 C 0.047763 0.524732 0.567895
C_984 C 0.174034 0.585839 0.537447
C_985 C 0.132780 0.563960 0.546974
C_986 C 0.133220 0.517517 0.567474
C_987 C 0.162746 0.470168 0.594658
C_988 C 0.250915 0.586711 0.514579
C_989 C 0.208068 0.558926 0.519316
C_990 C 0.210339 0.495537 0.510421
C_991 C 0.250169 0.489060 0.524368
C_992 C 0.330441 0.586611 0.507895
C_993 C 0.293390 0.562685 0.508816
C_994 C 0.290373 0.514060 0.514395
C_995 C 0.329254 0.494094 0.527342
C_996 C 0.411153 0.588255 0.505316
C_997 C 0.368373 0.561946 0.507184
C_998 C 0.368949 0.515805 0.514342
C_999 C 0.409797 0.495604 0.518158
C_1000 C 0.494407 0.589362 0.506105
C_1001 C 0.453220 0.567450 0.503316
C_1002 C 0.452678 0.516913 0.503237
C_1003 C 0.495729 0.501309 0.513316
C_1004 C 0.577932 0.596510 0.514895
C_1005 C 0.538203 0.570805 0.507316
C_1006 C 0.540508 0.520570 0.506079
C_1007 C 0.583695 0.497651 0.522737
C_1008 C 0.663661 0.592617 0.517763
C_1009 C 0.627593 0.567181 0.517974
C_1010 C 0.624712 0.523289 0.527368
C_1011 C 0.672237 0.501443 0.535737
C_1012 C 0.741390 0.598758 0.507737
C_1013 C 0.703864 0.570134 0.512579
C_1014 C 0.708949 0.529698 0.529921
C_1015 C 0.757017 0.512886 0.542579
C_1016 C 0.835932 0.597785 0.514974
C_1017 C 0.787424 0.581309 0.521842
C_1018 C 0.795186 0.536745 0.535184
C_1019 C 0.841966 0.526946 0.544684
C_1020 C 0.916746 0.583456 0.535474
C_1021 C 0.937831 0.474295 0.589132
C_1022 C 0.993898 0.591175 0.551974
C_1023 C 0.957322 0.565201 0.549921
C_1024 C 0.962170 0.519732 0.564474
C_1025 C 0.004203 0.504094 0.576974
C_1026 C 0.177627 0.638490 0.533789
C_1027 C 0.093288 0.640000 0.544421
C_1028 C 0.216678 0.656476 0.534658
C_1029 C 0.976305 0.688255 0.503684
C_1030 C 0.136678 0.709161 0.532132
C_1031 C 0.138136 0.662752 0.542947
C_1032 C 0.254610 0.633188 0.519079
C_1033 C 0.325661 0.733456 0.533605
C_1034 C 0.286780 0.707819 0.528421
C_1035 C 0.294000 0.655168 0.524474
C_1036 C 0.330068 0.637181 0.512158
C_1037 C 0.405661 0.728456 0.522447
C_1038 C 0.369220 0.709094 0.516658
C_1039 C 0.367661 0.663960 0.513605
C_1040 C 0.410034 0.637584 0.501263
C_1041 C 0.487559 0.725302 0.540474
C_1042 C 0.451288 0.703389 0.521737
C_1043 C 0.453186 0.659530 0.511868
C_1044 C 0.493831 0.633356 0.513211
C_1045 C 0.529559 0.704832 0.533289
C_1046 C 0.532508 0.657651 0.522132
C_1047 C 0.573898 0.637785 0.515632
C_1048 C 0.636305 0.739631 0.548263
C_1049 C 0.606169 0.711946 0.530579
C_1050 C 0.616203 0.667819 0.516237
C_1051 C 0.658271 0.639430 0.509079
C_1052 C 0.775153 0.447215 0.577895
C_1053 C 0.795593 0.625000 0.407447
C_1054 C 0.947424 0.689027 0.466579
C_1055 C 0.590237 0.665168 0.795526
C_1056 C 0.715119 0.640839 0.488895
C_1057 C 0.857559 0.633322 0.500605
C_1058 C 0.899051 0.449765 0.230289
C_1059 C 0.702136 0.682349 0.388026
C_1060 C 0.911966 0.629497 0.514895
C_1061 C 0.934068 0.671812 0.519553
C_1062 C 0.067593 0.758859 0.848105
C_1063 C 0.955525 0.566242 0.782211
C_1064 C 0.984644 0.634295 0.538711
C_1065 C 0.060475 0.672383 0.556711
C_1066 C 0.217559 0.741309 0.568421
C_1067 C 0.079525 0.724161 0.557763
C_1068 C 0.018102 0.668960 0.541368
C_1069 C 0.116576 0.738490 0.577737
C_1070 C 0.159831 0.743859 0.565947
C_1071 C 0.257017 0.763154 0.574658
C_1072 C 0.224712 0.281208 0.772184
C_1073 C 0.297695 0.779429 0.574053
C_1074 C 0.326847 0.773758 0.548132
C_1075 C 0.366203 0.794899 0.550605
C_1076 C 0.403356 0.774832 0.532789
C_1077 C 0.637186 0.765772 0.570474
C_1078 C 0.388305 0.125671 0.644395
C_1079 C 0.562983 0.724765 0.535079
C_1080 C 0.481593 0.950101 0.815158
C_1081 C 0.646169 0.788221 0.593921
C_1082 C 0.074034 0.178893 0.754895
C_1083 C 0.036305 0.152584 0.762500
C_1084 C 0.037966 0.106409 0.758684
C_1085 C 0.081898 0.084966 0.760974
C_1086 C 0.160203 0.190268 0.762158
C_1087 C 0.119017 0.113289 0.760421
C_1088 C 0.161593 0.095973 0.753947
C_1089 C 0.250373 0.181477 0.761421
C_1090 C 0.201220 0.166779 0.758737
C_1091 C 0.199458 0.117114 0.758474
C_1092 C 0.241220 0.080604 0.761579
C_1093 C 0.327932 0.166107 0.768579
C_1094 C 0.288983 0.143725 0.761079
C_1095 C 0.282441 0.103926 0.764211
C_1096 C 0.324712 0.077819 0.769079
C_1097 C 0.404339 0.180235 0.777079
C_1098 C 0.368441 0.146879 0.775789
C_1099 C 0.366881 0.099060 0.778421
C_1100 C 0.403220 0.078725 0.781211
C_1101 C 0.493085 0.174060 0.776421
C_1102 C 0.446068 0.153826 0.779737
C_1103 C 0.442305 0.100134 0.784316
C_1104 C 0.483797 0.074933 0.787763
C_1105 C 0.570373 0.190839 0.781316
C_1106 C 0.532407 0.150906 0.782763
C_1107 C 0.531797 0.103725 0.782763
C_1108 C 0.572814 0.083221 0.788763
C_1109 C 0.611763 0.161510 0.782947
C_1110 C 0.612780 0.116007 0.789658
C_1111 C 0.658170 0.092550 0.793079
C_1112 C 0.657763 0.186208 0.780132
C_1113 C 0.699831 0.159530 0.781947
C_1114 C 0.701458 0.109295 0.778763
C_1115 C 0.617797 0.184933 0.936789
C_1116 C 0.740373 0.179631 0.763921
C_1117 C 0.871491 0.091846 0.698947
C_1118 C 0.894373 0.178792 0.751947
C_1119 C 0.914475 0.138087 0.726211
C_1120 C 0.901864 0.973523 0.755263
C_1121 C 0.914881 0.067483 0.758447
C_1122 C 0.994034 0.176745 0.754947
C_1123 C 0.950373 0.161577 0.768289
C_1124 C 0.948881 0.101577 0.763211
C_1125 C 0.001356 0.084497 0.772237
C_1126 C 0.062983 0.321913 0.743921
C_1127 C 0.026407 0.294329 0.745579
C_1128 C 0.030475 0.250906 0.749316
C_1129 C 0.073220 0.226074 0.756526
C_1130 C 0.106678 0.302987 0.760079
C_1131 C 0.111966 0.251141 0.758290
C_1132 C 0.152102 0.236611 0.762132
C_1133 C 0.166034 0.361879 0.740158
C_1134 C 0.276881 0.225268 0.766237
C_1135 C 0.181356 0.278591 0.763079
C_1136 C 0.411356 0.330940 0.780921
C_1137 C 0.268373 0.272282 0.769158
C_1138 C 0.386339 0.456107 0.798605
C_1139 C 0.321153 0.213289 0.767579
C_1140 C 0.324610 0.291544 0.770921
C_1141 C 0.350136 0.246275 0.772474
C_1142 C 0.404475 0.227517 0.775868
C_1143 C 0.489830 0.322718 0.777447
C_1144 C 0.448644 0.300067 0.776868
C_1145 C 0.446983 0.251275 0.773895
C_1146 C 0.489966 0.222114 0.771711
C_1147 C 0.576237 0.319430 0.770526
C_1148 C 0.528915 0.298691 0.771342
C_1149 C 0.529729 0.252953 0.767132
C_1150 C 0.578915 0.233557 0.771921
C_1151 C 0.674949 0.315134 0.780658
C_1152 C 0.624847 0.298893 0.773763
C_1153 C 0.622102 0.254463 0.770947
C_1154 C 0.662305 0.227282 0.772158
C_1155 C 0.715051 0.291711 0.773184
C_1156 C 0.705966 0.246846 0.768632
C_1157 C 0.745864 0.223188 0.764947
C_1158 C 0.818475 0.319564 0.772158
C_1159 C 0.777356 0.290436 0.772684
C_1160 C 0.784000 0.244463 0.765974
C_1161 C 0.827085 0.223893 0.765632
C_1162 C 0.901017 0.317617 0.757474
C_1163 C 0.860475 0.296812 0.763500
C_1164 C 0.860746 0.247852 0.760237
C_1165 C 0.899186 0.226141 0.750789
C_1166 C 0.984373 0.316678 0.741632
C_1167 C 0.944576 0.293322 0.747500
C_1168 C 0.946169 0.244430 0.752026
C_1169 C 0.993254 0.222181 0.750684
C_1170 C 0.064169 0.489530 0.777632
C_1171 C 0.048034 0.369530 0.742658
C_1172 C 0.134678 0.464899 0.746053
C_1173 C 0.091254 0.447013 0.757763
C_1174 C 0.080203 0.402416 0.750711
C_1175 C 0.162746 0.395940 0.716026
C_1176 C 0.207186 0.483926 0.749368
C_1177 C 0.165695 0.444866 0.724158
C_1178 C 0.268407 0.498591 0.781158
C_1179 C 0.150949 0.325671 0.760526
C_1180 C 0.390610 0.407517 0.786895
C_1181 C 0.431559 0.383758 0.787289
C_1182 C 0.353593 0.381846 0.783474
C_1183 C 0.359525 0.335436 0.783132
C_1184 C 0.503525 0.465336 0.803474
C_1185 C 0.531119 0.385872 0.791526
C_1186 C 0.487932 0.366242 0.780711
C_1187 C 0.576949 0.450805 0.805395
C_1188 C 0.534305 0.433893 0.801711
C_1189 C 0.570508 0.361510 0.782579
C_1190 C 0.683390 0.472919 0.808684
C_1191 C 0.618508 0.422718 0.797105
C_1192 C 0.610271 0.378289 0.790263
C_1193 C 0.668102 0.359228 0.788658
C_1194 C 0.664746 0.429899 0.805684
C_1195 C 0.695864 0.396275 0.800474
C_1196 C 0.595051 0.587517 0.816211
C_1197 C 0.833220 0.454362 0.786395
C_1198 C 0.788271 0.413356 0.783947
C_1199 C 0.732407 0.472081 0.806289
C_1200 C 0.822881 0.369430 0.774763
C_1201 C 0.916271 0.449027 0.776763
C_1202 C 0.869898 0.430940 0.773632
C_1203 C 0.867458 0.387383 0.773237
C_1204 C 0.905322 0.365537 0.758526
C_1205 C 0.953051 0.428154 0.763158
C_1206 C 0.951288 0.387517 0.752342
C_1207 C 0.985831 0.361477 0.745921
C_1208 C 0.073763 0.584698 0.780526
C_1209 C 0.032678 0.561644 0.780605
C_1210 C 0.020271 0.514933 0.781816
C_1211 C 0.158441 0.655268 0.789816
C_1212 C 0.097220 0.525940 0.776079
C_1213 C 0.139695 0.513154 0.755684
C_1214 C 0.254542 0.588859 0.780947
C_1215 C 0.224034 0.561510 0.771658
C_1216 C 0.243356 0.471409 0.765868
C_1217 C 0.199288 0.531913 0.755395
C_1218 C 0.332475 0.597517 0.793263
C_1219 C 0.298169 0.570940 0.786842
C_1220 C 0.304136 0.522953 0.790026
C_1221 C 0.345695 0.504664 0.796500
C_1222 C 0.415220 0.604161 0.805395
C_1223 C 0.375458 0.578523 0.796658
C_1224 C 0.379288 0.531275 0.804289
C_1225 C 0.419661 0.510872 0.805684
C_1226 C 0.496949 0.608255 0.809474
C_1227 C 0.457254 0.580302 0.807079
C_1228 C 0.457729 0.534128 0.808895
C_1229 C 0.498339 0.512886 0.814079
C_1230 C 0.542881 0.585201 0.810658
C_1231 C 0.538170 0.539362 0.819263
C_1232 C 0.576780 0.498389 0.810553
C_1233 C 0.614509 0.530134 0.814184
C_1234 C 0.658610 0.511477 0.817789
C_1235 C 0.752780 0.596208 0.794500
C_1236 C 0.711458 0.582248 0.810079
C_1237 C 0.711458 0.540705 0.815237
C_1238 C 0.753356 0.510436 0.803184
C_1239 C 0.875491 0.572852 0.780553
C_1240 C 0.796576 0.577987 0.796500
C_1241 C 0.799763 0.526879 0.795947
C_1242 C 0.835491 0.499463 0.788053
C_1243 C 0.831831 0.599832 0.784000
C_1244 C 0.878610 0.522081 0.786526
C_1245 C 0.920407 0.495638 0.778211
C_1246 C 0.994847 0.587987 0.785158
C_1247 C 0.957864 0.520134 0.782421
C_1248 C 0.918271 0.595839 0.780921
C_1249 C 0.073831 0.726007 0.786500
C_1250 C 0.035763 0.700403 0.784526
C_1251 C 0.033898 0.659933 0.779316
C_1252 C 0.074508 0.636779 0.777395
C_1253 C 0.115729 0.710671 0.775316
C_1254 C 0.119898 0.663020 0.776342
C_1255 C 0.227390 0.711611 0.785132
C_1256 C 0.115593 0.650369 0.867579
C_1257 C 0.206949 0.664899 0.782105
C_1258 C 0.251627 0.635805 0.785158
C_1259 C 0.327051 0.742114 0.788684
C_1260 C 0.290847 0.665738 0.789789
C_1261 C 0.334576 0.648792 0.785579
C_1262 C 0.411831 0.746913 0.797000
C_1263 C 0.370644 0.723960 0.791263
C_1264 C 0.374780 0.672081 0.794237
C_1265 C 0.413322 0.651644 0.795947
C_1266 C 0.493966 0.746275 0.799789
C_1267 C 0.453729 0.722617 0.798632
C_1268 C 0.453898 0.676477 0.799289
C_1269 C 0.577695 0.742819 0.793237
C_1270 C 0.534237 0.724732 0.792658
C_1271 C 0.496136 0.650570 0.799553
C_1272 C 0.615458 0.627852 0.809763
C_1273 C 0.660780 0.738221 0.786289
C_1274 C 0.614136 0.712651 0.795579
C_1275 C 0.534746 0.677953 0.796447
C_1276 C 0.746915 0.740369 0.770605
C_1277 C 0.700576 0.715604 0.784711
C_1278 C 0.730373 0.671846 0.763895
C_1279 C 0.756305 0.642416 0.791947
C_1280 C 0.832847 0.743591 0.817763
C_1281 C 0.787254 0.698087 0.761289
C_1282 C 0.805051 0.652852 0.784632
C_1283 C 0.907186 0.728826 0.765395
C_1284 C 0.850136 0.724664 0.775368
C_1285 C 0.812780 0.823960 0.817211
C_1286 C 0.946373 0.700268 0.776368
C_1287 C 0.991932 0.724631 0.779921
C_1288 C 0.944881 0.649698 0.783342
C_1289 C 0.990475 0.633255 0.783632
C_1290 C 0.060644 0.907752 0.786395
C_1291 C 0.031898 0.846745 0.785105
C_1292 C 0.034000 0.799060 0.787026
C_1293 C 0.069085 0.772785 0.799158
C_1294 C 0.113458 0.971409 0.768368
C_1295 C 0.112712 0.889597 0.789342
C_1296 C 0.127051 0.888154 0.824211
C_1297 C 0.136305 0.917148 0.764816
C_1298 C 0.166441 0.720537 0.794289
C_1299 C 0.320576 0.884866 0.791710
C_1300 C 0.285254 0.860268 0.785184
C_1301 C 0.288000 0.819094 0.786500
C_1302 C 0.322542 0.791510 0.791500
C_1303 C 0.406068 0.889497 0.804184
C_1304 C 0.366712 0.862114 0.798921
C_1305 C 0.366271 0.815638 0.797368
C_1306 C 0.413559 0.795000 0.799474
C_1307 C 0.557322 0.917651 0.891395
C_1308 C 0.452475 0.873691 0.807658
C_1309 C 0.457492 0.819161 0.804053
C_1310 C 0.495153 0.795772 0.799000
C_1311 C 0.604034 0.869866 0.851211
C_1312 C 0.540881 0.818020 0.804421
C_1313 C 0.582983 0.789899 0.800263
C_1314 C 0.655661 0.889295 0.797000
C_1315 C 0.617525 0.860470 0.809289
C_1316 C 0.619593 0.810235 0.803237
C_1317 C 0.663525 0.783188 0.795237
C_1318 C 0.755186 0.875101 0.796316
C_1319 C 0.707831 0.858389 0.799342
C_1320 C 0.703356 0.807349 0.793658
C_1321 C 0.744576 0.787919 0.785789
C_1322 C 0.880881 0.950671 0.924421
C_1323 C 0.854983 0.801175 0.811763
C_1324 C 0.819559 0.866242 0.836684
C_1325 C 0.911593 0.884396 0.766368
C_1326 C 0.901898 0.920268 0.741263
C_1327 C 0.860169 0.784463 0.780316
C_1328 C 0.921051 0.774664 0.758158
C_1329 C 0.992203 0.869027 0.785474
C_1330 C 0.951763 0.848826 0.772158
C_1331 C 0.952136 0.797584 0.771000
C_1332 C 0.991729 0.773490 0.778868
C_1333 C 0.084441 0.040570 0.758605
C_1334 C 0.063797 0.960101 0.773500
C_1335 C 0.176034 0.065906 0.709868
C_1336 C 0.124475 0.016007 0.761658
C_1337 C 0.177390 0.923121 0.770526
C_1338 C 0.241864 0.032282 0.761658
C_1339 C 0.281390 0.007181 0.772263
C_1340 C 0.207492 0.955638 0.769211
C_1341 C 0.247898 0.938020 0.775684
C_1342 C 0.318610 0.031711 0.778000
C_1343 C 0.282949 0.958792 0.778789
C_1344 C 0.325864 0.933658 0.784684
C_1345 C 0.359729 0.007383 0.784158
C_1346 C 0.358746 0.960638 0.793526
C_1347 C 0.400339 0.935470 0.801421
C_1348 C 0.482102 0.029463 0.794342
C_1349 C 0.400949 0.028826 0.788868
C_1350 C 0.440746 0.962852 0.800895
C_1351 C 0.516678 0.984128 0.811158
C_1352 C 0.440271 0.007450 0.793026
C_1353 C 0.558305 0.972819 0.827842
C_1354 C 0.651627 0.044228 0.790553
C_1355 C 0.606169 0.028020 0.793132
C_1356 C 0.600169 0.986678 0.805368
C_1357 C 0.710475 0.035000 0.843895
C_1358 C 0.685831 0.014195 0.800395
C_1359 C 0.644949 0.940000 0.802368
C_1360 C 0.924949 0.019530 0.766079
C_1361 C 0.756915 0.017047 0.849737
C_1362 C 0.680373 0.971477 0.821605
C_1363 C 0.883763 0.080134 0.736316
C_1364 C 0.781085 0.822013 0.781342
C_1365 C 0.931220 -0.062685 0.787605
C_1366 C 0.008000 0.037752 0.786395
C_1367 C 0.958780 0.012047 0.795658
C_1368 C 0.967525 -0.033389 0.803947
C_1369 C 0.047661 0.013557 0.770553
C_1370 C 0.324068 0.892282 0.955000
C_1371 C 0.452949 1.043523 0.901868
C_1372 C 0.423322 0.209664 0.995605
C_1373 C 0.650102 0.160134 0.935421
C_1374 C 0.620508 0.074899 0.919658
C_1375 C 0.922373 0.133523 0.085316
C_1376 C 1.002542 -0.008926 0.068237
C_1377 C 1.198610 0.235906 0.982263
C_1378 C 0.346915 0.297416 0.026658
C_1379 C 0.474203 0.278490 1.042974
C_1380 C 0.580847 0.299262 1.003079
C_1381 C 0.513627 0.027685 0.927395
C_1382 C 0.318068 0.319966 0.046816
C_1383 C 0.693797 0.200604 0.072711
C_1384 C 0.711186 0.216913 0.046842
C_1385 C 0.690644 0.306107 0.017658
C_1386 C 0.724780 0.263624 0.020421
C_1387 C 0.631932 0.345872 0.989132
C_1388 C 0.793458 0.318188 0.020211
C_1389 C 0.900576 0.297785 0.935868
C_1390 C 0.892678 0.134799 0.941816
C_1391 C 0.949831 0.303624 0.990053
C_1392 C 0.103288 0.409027 0.936737
C_1393 C 0.328508 0.422819 0.996316
C_1394 C 0.395288 0.302349 0.976947
C_1395 C 0.288305 0.453826 0.979184
C_1396 C 0.279763 0.272584 0.985605
C_1397 C 0.345695 0.429530 0.948211
C_1398 C 1.227424 0.274832 0.957605
C_1399 C 0.379898 0.403893 0.942184
C_1400 C 1.174034 0.320403 0.978474
C_1401 C 0.289017 0.259329 0.051711
C_1402 C 0.427797 0.305470 1.010842
C_1403 C 0.507186 0.398825 0.991447
C_1404 C 0.461186 0.373691 0.993579
C_1405 C 0.463729 0.329295 0.998868
C_1406 C 0.506610 0.321477 1.013474
C_1407 C 0.585559 0.404832 0.988237
C_1408 C 0.546169 0.381342 0.994868
C_1409 C 0.544203 0.332752 0.999868
C_1410 C 0.668983 0.418758 0.991711
C_1411 C 0.630780 0.388054 0.998447
C_1412 C 0.746814 0.422315 0.996737
C_1413 C 0.706814 0.400034 0.000237
C_1414 C 0.781729 0.345940 0.918868
C_1415 C 0.826034 0.415537 0.003553
C_1416 C 0.783525 0.394933 0.005921
C_1417 C 0.767322 0.351409 0.014974
C_1418 C 0.720949 0.350604 0.008579
C_1419 C 0.905864 0.434732 0.004421
C_1420 C 0.869627 0.401477 0.006579
C_1421 C 0.881458 0.355470 0.014421
C_1422 C 0.959220 0.355570 0.118342
C_1423 C 0.859085 0.326040 0.075974
C_1424 C 0.896305 0.551477 0.995816
C_1425 C 1.153288 0.355470 0.960079
C_1426 C 0.305797 0.542383 0.990316
C_1427 C 0.323186 0.497315 0.985763
C_1428 C 0.244576 0.468020 0.941868
C_1429 C 0.461153 0.706040 0.889684
C_1430 C 0.368203 0.453490 0.999868
C_1431 C 0.417288 0.547651 0.981474
C_1432 C 0.329322 0.552047 0.897868
C_1433 C 0.412339 0.436175 0.987842
C_1434 C 0.549288 0.650839 0.988763
C_1435 C 0.439424 0.517416 0.999711
C_1436 C 0.452915 0.471779 0.986579
C_1437 C 0.503695 0.452383 0.991421
C_1438 C 0.593695 0.548221 0.988158
C_1439 C 0.549017 0.525772 0.985684
C_1440 C 0.546508 0.477248 0.983132
C_1441 C 0.585559 0.456745 0.988184
C_1442 C 0.673593 0.545604 0.989395
C_1443 C 0.631525 0.525101 0.982263
C_1444 C 0.626881 0.481208 0.980632
C_1445 C 0.763627 0.551107 0.006289
C_1446 C 0.668712 0.461443 0.989184
C_1447 C 0.707492 0.493356 0.992000
C_1448 C 0.752237 0.468356 0.997158
C_1449 C 0.800949 0.527953 0.998184
C_1450 C 0.797051 0.485403 0.997921
C_1451 C 0.829322 0.459698 0.990158
C_1452 C 0.877695 0.480738 0.994974
C_1453 C 0.867763 0.524295 1.000605
C_1454 C 0.829288 0.598054 0.064684
C_1455 C 0.223322 0.688188 0.964579
C_1456 C 0.217898 0.648121 0.967474
C_1457 C 0.248271 0.617752 0.959684
C_1458 C 0.302847 0.572550 0.059342
C_1459 C 0.326136 0.681242 0.963500
C_1460 C 0.292780 0.624195 0.961342
C_1461 C 0.325288 0.594430 0.968263
C_1462 C 0.410644 0.685134 0.973105
C_1463 C 0.368339 0.663859 0.967579
C_1464 C 0.369220 0.615201 0.968500
C_1465 C 0.413559 0.590470 0.969868
C_1466 C 0.498169 0.683188 0.970579
C_1467 C 0.454407 0.665000 0.970737
C_1468 C 0.454746 0.615067 0.971868
C_1469 C 0.586000 0.680034 0.984447
C_1470 C 0.527831 0.586174 0.986447
C_1471 C 0.592881 0.596779 0.989395
C_1472 C 0.656475 0.697718 0.947026
C_1473 C 0.629830 0.603960 0.057711
C_1474 C 0.632542 0.612181 1.006737
C_1475 C 0.780237 0.753826 0.072947
C_1476 C 0.697763 0.703591 0.929789
C_1477 C 0.757831 0.597685 0.008263
C_1478 C 0.643593 0.674396 0.986895
C_1479 C 0.041390 0.790403 0.868132
C_1480 C 0.170068 0.742315 1.024474
C_1481 C 0.237153 0.832315 0.992237
C_1482 C 0.192034 0.813960 1.000763
C_1483 C 0.189424 0.763490 0.997868
C_1484 C 0.233153 0.730604 0.972447
C_1485 C 0.310102 0.829060 0.977447
C_1486 C 0.272508 0.802114 0.987474
C_1487 C 0.274814 0.750772 0.972289
C_1488 C 0.320339 0.723591 0.969079
C_1489 C 0.275864 0.877450 0.977211
C_1490 C 0.363661 0.802886 0.975184
C_1491 C 0.359932 0.747953 0.971895
C_1492 C 0.403966 0.731107 0.981500
C_1493 C 0.537932 0.806879 0.977342
C_1494 C 0.500915 0.751275 0.916474
C_1495 C 0.500000 0.728691 0.975921
C_1496 C 0.574508 0.845336 -0.046474
C_1497 C 0.428136 0.750403 1.006474
C_1498 C 0.542712 0.748121 0.973947
C_1499 C 0.578983 0.718926 0.964842
C_1500 C 0.647220 0.808356 0.006579
C_1501 C 0.624949 0.812685 -0.042053
C_1502 C 0.627559 0.745101 0.963342
C_1503 C 0.667729 0.727550 0.999263
C_1504 C 0.053593 0.426644 0.180658
C_1505 C 0.058780 0.470537 0.181447
C_1506 C 0.088441 0.398456 0.196579
C_1507 C 0.988407 0.432013 0.136237
C_1508 C 0.987932 0.477987 0.129684
C_1509 C 0.091322 0.495940 0.192789
C_1510 C 0.158441 0.397953 0.216368
C_1511 C 0.127695 0.419362 0.204184
C_1512 C 0.127797 0.469329 0.202789
C_1513 C 0.172271 0.493121 0.202816
C_1514 C 0.274983 0.406376 0.209000
C_1515 C 0.212678 0.476074 0.200658
C_1516 C 0.250780 0.499295 0.202500
C_1517 C 0.397763 0.376711 0.210132
C_1518 C 0.291254 0.414195 0.167132
C_1519 C 0.293763 0.472081 0.190289
C_1520 C 0.338136 0.488725 0.193421
C_1521 C 0.409966 0.414161 0.205816
C_1522 C 0.379356 0.467114 0.187816
C_1523 C 0.417051 0.493725 0.177316
C_1524 C 0.445661 0.438825 0.188395
C_1525 C 0.501119 0.499899 0.172079
C_1526 C 0.585322 0.412114 0.187684
C_1527 C 0.547322 0.433960 0.174816
C_1528 C 0.546203 0.481242 0.172395
C_1529 C 0.587356 0.508121 0.164658
C_1530 C 0.658508 0.422718 0.204816
C_1531 C 0.621017 0.446577 0.190632
C_1532 C 0.624509 0.494295 0.180632
C_1533 C 0.667729 0.512718 0.176605
C_1534 C 0.757695 0.425302 0.200368
C_1535 C 0.701085 0.444060 0.196368
C_1536 C 0.702136 0.491644 0.193289
C_1537 C 0.743797 0.499799 0.175237
C_1538 C 0.953492 0.406074 0.121737
C_1539 C 0.780068 0.480403 0.184816
C_1540 C 0.808712 0.444329 0.166184
C_1541 C 0.848475 0.491779 0.152921
C_1542 C 0.818780 0.405604 0.188342
C_1543 C 0.884068 0.467416 0.175500
C_1544 C 0.910339 0.495235 0.195026
C_1545 C 0.126949 0.616946 0.187447
C_1546 C 0.920644 0.631007 0.172500
C_1547 C 0.090305 0.544530 0.188395
C_1548 C 0.049864 0.575705 0.178921
C_1549 C 0.084712 0.625638 0.165974
C_1550 C 0.875119 0.845168 0.108737
C_1551 C 0.170305 0.542752 0.197579
C_1552 C 0.127085 0.565436 0.199816
C_1553 C 0.210746 0.571409 0.204763
C_1554 C 0.252034 0.545940 0.202132
C_1555 C 0.337729 0.540067 0.192447
C_1556 C 0.294441 0.564060 0.192395
C_1557 C 0.295390 0.609262 0.187895
C_1558 C 0.334237 0.634362 0.179500
C_1559 C 0.420339 0.542550 0.177579
C_1560 C 0.379017 0.565470 0.177289
C_1561 C 0.374678 0.612819 0.170974
C_1562 C 0.410475 0.634597 0.156342
C_1563 C 0.498237 0.539295 0.162026
C_1564 C 0.456475 0.560906 0.163605
C_1565 C 0.458034 0.610201 0.155658
C_1566 C 0.494000 0.630201 0.143658
C_1567 C 0.581661 0.554899 0.159658
C_1568 C 0.539797 0.565772 0.155842
C_1569 C 0.532746 0.607953 0.146553
C_1570 C 0.565864 0.647114 0.146211
C_1571 C 0.665017 0.559597 0.160632
C_1572 C 0.621864 0.581611 0.152526
C_1573 C 0.616576 0.631309 0.150342
C_1574 C 0.658780 0.656175 0.149395
C_1575 C 0.747254 0.543289 0.160711
C_1576 C 0.704271 0.580235 0.154526
C_1577 C 0.703220 0.624396 0.150211
C_1578 C 0.746915 0.642718 0.157658
C_1579 C 0.837864 0.537752 0.156026
C_1580 C 0.792373 0.564765 0.148763
C_1581 C 0.793661 0.611577 0.154868
C_1582 C 0.833729 0.634027 0.161184
C_1583 C 0.919288 0.545369 0.183526
C_1584 C 0.874881 0.564966 0.169632
C_1585 C 0.880170 0.607584 0.163789
C_1586 C 0.956881 0.581409 0.181237
C_1587 C 0.004475 0.617685 0.387316
C_1588 C 0.909695 0.854127 0.137816
C_1589 C 0.211932 0.618221 0.193421
C_1590 C 0.155390 0.650235 0.134105
C_1591 C 0.965254 0.849530 0.059263
C_1592 C 0.096983 0.652651 0.137921
C_1593 C 0.255186 0.635570 0.188132
C_1594 C 0.957831 0.815772 0.867395
C_1595 C 0.254441 0.689396 0.189737
C_1596 C 0.247797 0.753624 0.178395
C_1597 C 0.332169 0.681913 0.176974
C_1598 C 0.299051 0.705302 0.193842
C_1599 C 0.298271 0.750134 0.186000
C_1600 C 0.334644 0.775537 0.176263
C_1601 C 0.412542 0.680201 0.157132
C_1602 C 0.373288 0.703255 0.169789
C_1603 C 0.374305 0.751946 0.171342
C_1604 C 0.414610 0.773825 0.166368
C_1605 C 0.508169 0.678087 0.145816
C_1606 C 0.457458 0.704664 0.156447
C_1607 C 0.451593 0.746141 0.162132
C_1608 C 0.576678 0.774027 0.171000
C_1609 C 0.660542 0.705034 0.163132
C_1610 C 0.668576 0.769228 0.173632
C_1611 C 0.752136 0.682315 0.163974
C_1612 C 0.709695 0.707148 0.172184
C_1613 C 0.711898 0.752047 0.176263
C_1614 C 0.752475 0.773221 0.189974
C_1615 C 0.832678 0.683289 0.163158
C_1616 C 0.792136 0.703725 0.171368
C_1617 C 0.794339 0.749430 0.180711
C_1618 C 0.836576 0.771611 0.184579
C_1619 C 0.918814 0.686443 0.165868
C_1620 C 0.873220 0.709128 0.165763
C_1621 C 0.873661 0.754128 0.170395
C_1622 C 0.915627 0.770738 0.176474
C_1623 C 0.946983 0.733624 0.170684
C_1624 C 0.124068 0.893758 0.143947
C_1625 C 0.031288 0.069430 0.103079
C_1626 C 1.034373 0.117919 0.213474
C_1627 C 0.139424 0.072819 0.198658
C_1628 C 0.148000 0.846779 0.144053
C_1629 C 0.129356 0.814966 0.130289
C_1630 C 0.088373 0.902785 0.131553
C_1631 C 0.160576 0.921946 0.159711
C_1632 C 0.238271 0.802081 0.170921
C_1633 C 0.194746 0.840336 0.158526
C_1634 C 0.196102 0.893792 0.168395
C_1635 C 0.232644 0.908758 0.179211
C_1636 C 0.329458 0.824228 0.179132
C_1637 C 0.276136 0.834698 0.181395
C_1638 C 0.268746 0.881409 0.185237
C_1639 C 0.304034 0.901745 0.196053
C_1640 C 0.415051 0.823591 0.174105
C_1641 C 0.365220 0.848121 0.181816
C_1642 C 0.354000 0.893289 0.193316
C_1643 C 0.352102 0.957013 0.187842
C_1644 C 0.497729 0.835268 0.171474
C_1645 C 0.452136 0.852013 0.171921
C_1646 C 0.469424 0.907383 0.192947
C_1647 C 0.507017 0.902047 0.205237
C_1648 C 0.583356 0.812886 0.180132
C_1649 C 0.540169 0.838389 0.186237
C_1650 C 0.549220 0.880570 0.203605
C_1651 C 0.587390 0.907148 0.193158
C_1652 C 0.670678 0.816476 0.178763
C_1653 C 0.625051 0.839698 0.181737
C_1654 C 0.626780 0.881946 0.186605
C_1655 C 0.669186 0.906846 0.177763
C_1656 C 0.754068 0.820671 0.190947
C_1657 C 0.712441 0.841879 0.190974
C_1658 C 0.711220 0.888221 0.183316
C_1659 C 0.750542 0.911242 0.179684
C_1660 C 0.837254 0.816175 0.191211
C_1661 C 0.793830 0.840268 0.193421
C_1662 C 0.793424 0.890671 0.182553
C_1663 C 0.835424 0.919396 0.159816
C_1664 C 0.924712 0.816443 0.177737
C_1665 C 0.878576 0.840302 0.184316
C_1666 C 0.885932 0.896040 0.158842
C_1667 C 0.085593 0.055839 0.152789
C_1668 C 0.159322 0.968423 0.164974
C_1669 C 0.126847 0.017651 0.149526
C_1670 C 0.244644 0.958691 0.177289
C_1671 C 0.203390 0.990101 0.179316
C_1672 C 0.296102 0.959094 0.193474
C_1673 C 0.164915 0.038289 0.178474
C_1674 C 0.383492 0.978557 0.161737
C_1675 C 0.439831 0.952785 0.145526
C_1676 C 0.508271 0.981946 0.174368
C_1677 C 0.587525 0.955705 0.205526
C_1678 C 0.475966 0.943624 0.165000
C_1679 C 0.658339 0.963087 0.172421
C_1680 C 0.616780 0.978322 0.185684
C_1681 C 0.783525 0.946342 0.147816
C_1682 C 0.668203 0.991779 0.143026
C_1683 C 0.716780 0.005134 0.133789
C_1684 C 0.760000 0.968826 0.122395
C_1685 C 0.489898 0.443926 0.193632
C_1686 C 0.640034 0.375067 0.193289
C_1687 C 0.988237 0.947215 0.861474
C_1688 C 0.204203 0.005000 0.761289
C_1689 C 0.165898 0.025503 0.746605
C_1690 C 0.967254 0.639530 0.404474
C_1691 C 0.002814 0.573993 0.185868
C_1692 C 0.005797 0.499161 0.329526
C_1693 C 0.281356 0.259564 1.018921
C_1694 C 0.577627 1.045302 0.905316
C_1695 C 0.561220 -0.006208 0.924421
C_1696 C 0.430949 0.227550 1.027395
C_1697 C 0.867322 1.022450 0.904816
C_1698 C 0.932746 1.018054 0.898605
C_1699 C 0.353932 0.300940 -0.008605
C_1700 C 0.645017 0.305705 1.008974
C_1701 C 0.947492 0.428557 -0.008395
C_1702 C -0.019864 0.402752 0.937868
C_1703 C 1.024441 0.434698 0.920184
C_1704 C 1.032305 0.517483 0.890605
C_1705 C -0.007085 0.544396 0.879158
C_1706 C -0.044407 0.474832 0.889737
C_1707 C 1.005797 0.472550 0.899184
C_1708 C 1.037288 0.607819 0.869763
C_1709 C 1.002712 0.686342 0.862421
C_1710 C -0.042203 0.660201 0.861132
C_1711 C -0.003492 0.586980 0.870053
C_1712 C -0.000644 0.780638 0.867237
C_1713 C -0.016441 0.739262 0.862158
C_1714 C 0.849797 -0.021409 0.913921
C_1715 C 0.933153 -0.030235 0.906974
C_1716 C 0.930475 0.343758 -0.001684
C_1717 C 0.552136 -0.021846 0.164395
C_1718 C 0.916644 1.042651 0.069211
C_1719 C 1.002203 0.128926 0.092868
C_1720 C -0.035525 0.109799 0.083737
C_1721 C 1.009797 0.279732 0.090263
C_1722 C -0.033051 0.254094 0.091684
C_1723 C -0.037356 0.206879 0.087316
C_1724 C 1.001322 0.178557 0.096026
C_1725 C 1.023763 0.408691 0.158184
C_1726 C 1.003559 0.338658 0.131053
C_1727 C 1.029288 0.547248 0.108053
C_1728 C -0.013966 0.569128 0.101237
C_1729 C 1.015356 0.642919 0.082737
C_1730 C 0.274610 0.557886 1.015579
C_1731 C 0.709153 0.608255 1.018632
C_1732 C 0.671831 0.587114 -0.000395
C_1733 C -0.017492 0.605168 0.083316
C_1734 C 1.019797 0.863188 0.055132
C_1735 C 0.583322 1.019430 0.153868
C_1736 C 0.364136 1.000503 0.133237
C_1737 C 0.338644 -0.034396 0.100868
C_1738 C 0.814847 1.008490 0.053263
C_1739 C 0.773085 1.032215 0.090553
C_1740 C -0.000814 0.042517 0.085395
C_1741 C 0.793627 -0.003087 0.104526
C_1742 C 0.840881 -0.022718 0.072605
C_1743 C 0.919017 -0.007886 0.071237
C_1744 C 0.961322 -0.023322 0.063211
C_1745 C -0.042271 0.927349 0.054263
C_1746 C 1.005831 0.909329 0.046000
C_1747 C 0.630644 1.024430 0.137921
C_1748 C 1.028814 0.503523 0.126079
C_1749 C -0.021525 0.198624 0.265658
C_1750 C 1.041390 0.292550 0.295263
C_1751 C -0.002576 0.311980 0.295395
C_1752 C 1.001695 0.226309 0.287763
C_1753 C 1.032712 0.432819 0.302947
C_1754 C 1.032136 0.385940 0.290868
C_1755 C -0.004610 0.457785 0.311000
C_1756 C -0.013220 0.359597 0.295421
C_1757 C -0.038271 0.556208 0.356816
C_1758 C -0.034407 0.518121 0.335974
C_1759 C 1.004373 0.575503 0.366000
C_1760 C 1.039763 0.208926 0.658053
C_1761 C -0.002339 0.220403 0.649316
C_1762 C 1.038271 0.374899 0.647026
C_1763 C 1.019559 0.303322 0.645158
C_1764 C -0.000712 0.347315 0.642421
C_1765 C -0.008542 0.269732 0.643526
C_1766 C 1.044305 0.569597 0.555026
C_1767 C -0.006102 0.591175 0.551974
C_1768 C -0.037830 0.519732 0.564474
C_1769 C 1.004203 0.504094 0.576974
C_1770 C -0.015356 0.634295 0.538711
C_1771 C 1.018102 0.668960 0.541368
C_1772 C 1.036305 0.152584 0.762500
C_1773 C 0.901864 -0.026477 0.755263
C_1774 C -0.005966 0.176745 0.754947
C_1775 C -0.051119 0.101577 0.763211
C_1776 C 1.001356 0.084497 0.772237
C_1777 C 1.026407 0.294329 0.745579
C_1778 C 1.030475 0.250906 0.749316
C_1779 C -0.015627 0.316678 0.741632
C_1780 C -0.006746 0.222181 0.750684
C_1781 C 1.032678 0.561644 0.780605
C_1782 C -0.005153 0.587987 0.785158
C_1783 C 1.035763 0.700403 0.784526
C_1784 C 1.033898 0.659933 0.779316
C_1785 C -0.008068 0.724631 0.779921
C_1786 C -0.009525 0.633255 0.783632
C_1787 C 1.031898 0.846745 0.785105
C_1788 C 1.034000 0.799060 0.787026
C_1789 C 0.113458 -0.028591 0.768368
C_1790 C -0.007797 0.869027 0.785474
C_1791 C -0.008271 0.773490 0.778868
C_1792 C 0.063797 -0.039899 0.773500
C_1793 C 0.124475 1.016007 0.761658
C_1794 C 0.281390 1.007181 0.772263
C_1795 C 0.207492 -0.044362 0.769211
C_1796 C 0.282949 -0.041208 0.778789
C_1797 C 0.359729 1.007383 0.784158
C_1798 C 0.358746 -0.039362 0.793526
C_1799 C 0.482102 1.029463 0.794342
C_1800 C 0.440746 -0.037148 0.800895
C_1801 C 0.516678 -0.015872 0.811158
C_1802 C 0.440271 1.007450 0.793026
C_1803 C 0.606169 1.028020 0.793132
C_1804 C 0.600169 -0.013322 0.805368
C_1805 C 0.685831 1.014195 0.800395
C_1806 C 0.924949 1.019530 0.766079
C_1807 C 0.680373 -0.028523 0.821605
C_1808 C 1.008000 0.037752 0.786395
C_1809 C -0.041220 0.012047 0.795658
C_1810 C 0.047661 1.013557 0.770553
C_1811 C 0.423322 0.209664 -0.004395
C_1812 C 1.002542 0.991074 0.068237
C_1813 C 0.346915 0.297416 1.026658
C_1814 C 0.513627 1.027685 0.927395
C_1815 C 0.631932 0.345872 -0.010868
C_1816 C 0.279763 0.272584 -0.014395
C_1817 C 0.668983 0.418758 -0.008289
C_1818 C 0.746814 0.422315 -0.003263
C_1819 C 0.706814 0.400034 1.000237
C_1820 C 0.826034 0.415537 1.003553
C_1821 C 0.783525 0.394933 1.005921
C_1822 C 0.905864 0.434732 1.004421
C_1823 C 0.881458 0.355470 1.014421
C_1824 C -0.040780 0.355570 0.118342
C_1825 C 0.305797 0.542383 -0.009684
C_1826 C 0.763627 0.551107 1.006289
C_1827 C 0.800949 0.527953 -0.001816
C_1828 C 0.829322 0.459698 -0.009842
C_1829 C 0.877695 0.480738 -0.005026
C_1830 C 1.041390 0.790403 0.868132
C_1831 C -0.011593 0.432013 0.136237
C_1832 C -0.012068 0.477987 0.129684
C_1833 C -0.043119 0.581409 0.181237
C_1834 C 1.004475 0.617685 0.387316
C_1835 C -0.034746 0.849530 0.059263
C_1836 C 1.031288 0.069430 0.103079
C_1837 C 0.383492 -0.021443 0.161737
C_1838 C 0.668203 -0.008221 0.143026
C_1839 C 0.716780 1.005134 0.133789
C_1840 C 0.760000 -0.031174 0.122395
C_1841 C 0.204203 1.005000 0.761289
C_1842 C -0.032746 0.639530 0.404474
C_1843 C 1.002814 0.573993 0.185868
C_1844 C 1.005797 0.499161 0.329526
C_1845 C 0.158305 0.205537 0.954684
C_1846 C 0.159390 0.269564 0.941211
C_1847 C 0.122441 0.259195 0.977605
C_1848 C 0.132102 0.216812 0.994000
C_1849 C 0.690847 0.762550 0.033895
C_1850 C 0.744441 0.777987 0.031289
C_1851 C 0.124373 0.149966 0.184921
C_1852 C 0.539017 0.119866 0.218947
C_1853 C 0.499424 0.150000 0.245500
C_1854 C 0.566814 0.177450 0.241816
C_1855 C 0.599966 0.160101 0.275421
C_1856 C 0.599932 0.114732 0.244395
C_1857 C 0.429661 0.767718 0.615000
C_1858 C 0.261288 0.729530 0.657132
C_1859 C 0.290170 0.744161 0.638974
C_1860 C 0.363492 0.768389 0.623895
C_1861 C 0.320034 0.751510 0.617763
C_1862 C 0.418780 0.822080 0.601842
C_1863 C 0.371898 0.805604 0.600447
C_1864 C 0.440305 0.801107 0.568105
C_1865 C 0.466881 0.753423 0.581789
C_1866 C 0.460000 0.737685 0.398895
loop_
_geom_bond_atom_site_label_1
_geom_bond_atom_site_label_2
_geom_bond_site_symmetry_1
_geom_bond_site_symmetry_2
C C_2 1_555 1_555
C C_6 1_555 1_555
C_2 C_3 1_555 1_555
C_2 C_37 1_555 1_555
C_3 C_4 1_555 1_555
C_4 C_7 1_555 1_555
C_4 C_242 1_555 1_555
C_5 C_7 1_555 1_555
C_5 C_42 1_555 1_555
C_6 C_9 1_555 1_555
C_8 C_114 1_555 1_555
C_8 C_1377 1_555 1_555
C_9 C_44 1_555 1_555
C_10 C_50 1_555 1_555
C_11 C_1401 1_555 1_555
C_11 C_1816 1_555 1_555
C_12 C_1371 1_555 1_555
C_13 C_16 1_555 1_555
C_13 C_255 1_555 1_555
C_13 C_259 1_555 1_555
C_14 C_19 1_555 1_555
C_14 C_21 1_555 1_555
C_15 C_18 1_555 1_555
C_15 C_53 1_555 1_555
C_16 C_254 1_555 1_555
C_16 C_1371 1_555 1_555
C_17 C_18 1_555 1_555
C_17 C_55 1_555 1_555
C_17 C_1372 1_555 1_555
C_18 C_19 1_555 1_555
C_20 C_23 1_555 1_555
C_20 C_254 1_555 1_555
C_20 C_1307 1_555 1_555
C_21 C_1381 1_555 1_555
C_22 C_1374 1_555 1_555
C_22 C_1695 1_555 1_555
C_23 C_1694 1_555 1_555
C_23 C_1814 1_555 1_555
C_24 C_322 1_555 1_555
C_24 C_1811 1_555 1_555
C_25 C_1373 1_555 1_555
C_25 C_1374 1_555 1_555
C_26 C_264 1_555 1_555
C_26 C_267 1_555 1_555
C_27 C_263 1_555 1_555
C_27 C_1357 1_555 1_555
C_28 C_29 1_555 1_555
C_28 C_32 1_555 1_555
C_28 C_64 1_555 1_555
C_29 C_30 1_555 1_555
C_30 C_263 1_555 1_555
C_30 C_1374 1_555 1_555
C_31 C_32 1_555 1_555
C_31 C_33 1_555 1_555
C_31 C_69 1_555 1_555
C_32 C_266 1_555 1_555
C_33 C_35 1_555 1_555
C_34 C_38 1_555 1_555
C_34 C_1390 1_555 1_555
C_35 C_1714 1_555 1_555
C_36 C_39 1_555 1_555
C_36 C_1715 1_555 1_555
C_37 C_38 1_555 1_555
C_37 C_75 1_555 1_555
C_38 C_39 1_555 1_555
C_40 C_76 1_555 1_555
C_40 C_1389 1_555 1_555
C_41 C_1625 1_555 1_555
C_41 C_1667 1_555 1_555
C_42 C_44 1_555 1_555
C_43 C_77 1_555 1_555
C_43 C_82 1_555 1_555
C_44 C_46 1_555 1_555
C_45 C_46 1_555 1_555
C_45 C_80 1_555 1_555
C_47 C_48 1_555 1_555
C_47 C_51 1_555 1_555
C_47 C_1396 1_555 1_555
C_48 C_49 1_555 1_555
C_48 C_52 1_555 1_555
C_50 C_53 1_555 1_555
C_51 C_1394 1_555 1_555
C_51 C_1813 1_555 1_555
C_52 C_53 1_555 1_555
C_54 C_89 1_555 1_555
C_54 C_93 1_555 1_555
C_55 C_58 1_555 1_555
C_55 C_89 1_555 1_555
C_56 C_57 1_555 1_555
C_56 C_97 1_555 1_555
C_57 C_58 1_555 1_555
C_58 C_280 1_555 1_555
C_59 C_60 1_555 1_555
C_59 C_63 1_555 1_555
C_59 C_104 1_555 1_555
C_60 C_101 1_555 1_555
C_61 C_1385 1_555 1_555
C_61 C_1815 1_555 1_555
C_62 C_66 1_555 1_555
C_62 C_104 1_555 1_555
C_63 C_64 1_555 1_555
C_64 C_1373 1_555 1_555
C_65 C_66 1_555 1_555
C_65 C_70 1_555 1_555
C_65 C_79 1_555 1_555
C_66 C_282 1_555 1_555
C_67 C_1386 1_555 1_555
C_67 C_1388 1_555 1_555
C_68 C_73 1_555 1_555
C_68 C_1391 1_555 1_555
C_69 C_1390 1_555 1_555
C_70 C_1389 1_555 1_555
C_71 C_74 1_555 1_555
C_71 C_1390 1_555 1_555
C_72 C_78 1_555 1_555
C_72 C_111 1_555 1_555
C_72 C_283 1_555 1_555
C_73 C_74 1_555 1_555
C_73 C_76 1_555 1_555
C_74 C_75 1_555 1_555
C_77 C_1425 1_555 1_555
C_78 C_1822 1_555 1_555
C_80 C_82 1_555 1_555
C_80 C_83 1_555 1_555
C_81 C_121 1_555 1_555
C_81 C_1392 1_555 1_555
C_83 C_1398 1_555 1_555
C_84 C_1399 1_555 1_555
C_84 C_1433 1_555 1_555
C_85 C_125 1_555 1_555
C_85 C_127 1_555 1_555
C_85 C_1428 1_555 1_555
C_86 C_88 1_555 1_555
C_86 C_1394 1_555 1_555
C_87 C_91 1_555 1_555
C_87 C_131 1_555 1_555
C_88 C_92 1_555 1_555
C_90 C_91 1_555 1_555
C_90 C_95 1_555 1_555
C_90 C_135 1_555 1_555
C_91 C_92 1_555 1_555
C_92 C_93 1_555 1_555
C_93 C_96 1_555 1_555
C_94 C_95 1_555 1_555
C_94 C_99 1_555 1_555
C_94 C_139 1_555 1_555
C_95 C_96 1_555 1_555
C_96 C_97 1_555 1_555
C_97 C_100 1_555 1_555
C_98 C_99 1_555 1_555
C_98 C_103 1_555 1_555
C_98 C_144 1_555 1_555
C_99 C_100 1_555 1_555
C_100 C_101 1_555 1_555
C_102 C_103 1_555 1_555
C_102 C_106 1_555 1_555
C_102 C_146 1_555 1_555
C_104 C_107 1_555 1_555
C_105 C_106 1_555 1_555
C_105 C_109 1_555 1_555
C_105 C_150 1_555 1_555
C_106 C_1414 1_555 1_555
C_107 C_1414 1_555 1_555
C_108 C_109 1_555 1_555
C_108 C_113 1_555 1_555
C_108 C_154 1_555 1_555
C_109 C_110 1_555 1_555
C_110 C_282 1_555 1_555
C_110 C_1389 1_555 1_555
C_111 C_113 1_555 1_555
C_111 C_1703 1_555 1_555
C_112 C_117 1_555 1_555
C_112 C_158 1_555 1_555
C_112 C_1702 1_555 1_555
C_114 C_1400 1_555 1_555
C_115 C_116 1_555 1_555
C_115 C_119 1_555 1_555
C_115 C_161 1_555 1_555
C_116 C_158 1_555 1_555
C_116 C_1705 1_555 1_555
C_117 C_120 1_555 1_555
C_117 C_1392 1_555 1_555
C_118 C_119 1_555 1_555
C_118 C_123 1_555 1_555
C_118 C_164 1_555 1_555
C_119 C_120 1_555 1_555
C_120 C_121 1_555 1_555
C_121 C_124 1_555 1_555
C_122 C_123 1_555 1_555
C_122 C_125 1_555 1_555
C_122 C_168 1_555 1_555
C_123 C_124 1_555 1_555
C_124 C_1428 1_555 1_555
C_125 C_1432 1_555 1_555
C_126 C_168 1_555 1_555
C_126 C_169 1_555 1_555
C_126 C_171 1_555 1_555
C_127 C_130 1_555 1_555
C_127 C_1397 1_555 1_555
C_128 C_129 1_555 1_555
C_128 C_133 1_555 1_555
C_128 C_177 1_555 1_555
C_129 C_130 1_555 1_555
C_129 C_1432 1_555 1_555
C_130 C_131 1_555 1_555
C_131 C_134 1_555 1_555
C_132 C_133 1_555 1_555
C_132 C_137 1_555 1_555
C_132 C_175 1_555 1_555
C_133 C_134 1_555 1_555
C_134 C_135 1_555 1_555
C_135 C_138 1_555 1_555
C_136 C_137 1_555 1_555
C_136 C_141 1_555 1_555
C_136 C_182 1_555 1_555
C_137 C_138 1_555 1_555
C_138 C_139 1_555 1_555
C_139 C_142 1_555 1_555
C_140 C_143 1_555 1_555
C_140 C_145 1_555 1_555
C_141 C_142 1_555 1_555
C_142 C_144 1_555 1_555
C_143 C_148 1_555 1_555
C_143 C_189 1_555 1_555
C_144 C_145 1_555 1_555
C_145 C_146 1_555 1_555
C_146 C_149 1_555 1_555
C_147 C_148 1_555 1_555
C_147 C_152 1_555 1_555
C_147 C_193 1_555 1_555
C_148 C_149 1_555 1_555
C_149 C_150 1_555 1_555
C_150 C_153 1_555 1_555
C_151 C_152 1_555 1_555
C_151 C_156 1_555 1_555
C_151 C_197 1_555 1_555
C_152 C_153 1_555 1_555
C_153 C_154 1_555 1_555
C_154 C_157 1_555 1_555
C_155 C_156 1_555 1_555
C_155 C_201 1_555 1_555
C_155 C_1704 1_555 1_555
C_156 C_157 1_555 1_555
C_157 C_1707 1_555 1_555
C_158 C_1706 1_555 1_555
C_159 C_160 1_555 1_555
C_159 C_198 1_555 1_555
C_160 C_161 1_555 1_555
C_160 C_1711 1_555 1_555
C_161 C_163 1_555 1_555
C_162 C_166 1_555 1_555
C_162 C_206 1_555 1_555
C_162 C_1256 1_555 1_555
C_163 C_164 1_555 1_555
C_163 C_1256 1_555 1_555
C_164 C_167 1_555 1_555
C_165 C_166 1_555 1_555
C_165 C_169 1_555 1_555
C_165 C_210 1_555 1_555
C_166 C_167 1_555 1_555
C_167 C_168 1_555 1_555
C_169 C_214 1_555 1_555
C_170 C_1255 1_555 1_555
C_170 C_1259 1_555 1_555
C_170 C_1260 1_555 1_555
C_171 C_174 1_555 1_555
C_171 C_1432 1_555 1_555
C_172 C_173 1_555 1_555
C_172 C_178 1_555 1_555
C_172 C_1429 1_555 1_555
C_173 C_174 1_555 1_555
C_173 C_214 1_555 1_555
C_174 C_177 1_555 1_555
C_175 C_178 1_555 1_555
C_175 C_181 1_555 1_555
C_176 C_180 1_555 1_555
C_176 C_1429 1_555 1_555
C_177 C_178 1_555 1_555
C_179 C_180 1_555 1_555
C_179 C_184 1_555 1_555
C_179 C_225 1_555 1_555
C_180 C_181 1_555 1_555
C_181 C_182 1_555 1_555
C_182 C_185 1_555 1_555
C_183 C_184 1_555 1_555
C_183 C_187 1_555 1_555
C_183 C_229 1_555 1_555
C_184 C_185 1_555 1_555
C_186 C_187 1_555 1_555
C_186 C_191 1_555 1_555
C_188 C_189 1_555 1_555
C_188 C_232 1_555 1_555
C_189 C_192 1_555 1_555
C_190 C_191 1_555 1_555
C_190 C_195 1_555 1_555
C_190 C_235 1_555 1_555
C_191 C_192 1_555 1_555
C_192 C_193 1_555 1_555
C_193 C_196 1_555 1_555
C_194 C_195 1_555 1_555
C_194 C_199 1_555 1_555
C_194 C_240 1_555 1_555
C_195 C_196 1_555 1_555
C_196 C_197 1_555 1_555
C_197 C_200 1_555 1_555
C_198 C_1710 1_555 1_555
C_198 C_1713 1_555 1_555
C_199 C_200 1_555 1_555
C_199 C_1709 1_555 1_555
C_200 C_201 1_555 1_555
C_201 C_1708 1_555 1_555
C_202 C_245 1_555 1_555
C_202 C_1479 1_555 1_555
C_203 C_204 1_555 1_555
C_203 C_208 1_555 1_555
C_204 C_205 1_555 1_555
C_205 C_206 1_555 1_555
C_205 C_1062 1_555 1_555
C_206 C_209 1_555 1_555
C_207 C_208 1_555 1_555
C_207 C_212 1_555 1_555
C_207 C_252 1_555 1_555
C_208 C_209 1_555 1_555
C_209 C_210 1_555 1_555
C_210 C_213 1_555 1_555
C_211 C_212 1_555 1_555
C_211 C_216 1_555 1_555
C_211 C_253 1_555 1_555
C_212 C_213 1_555 1_555
C_213 C_217 1_555 1_555
C_214 C_217 1_555 1_555
C_215 C_216 1_555 1_555
C_215 C_220 1_555 1_555
C_216 C_217 1_555 1_555
C_218 C_220 1_555 1_555
C_218 C_1429 1_555 1_555
C_218 C_1494 1_555 1_555
C_219 C_261 1_555 1_555
C_219 C_1080 1_555 1_555
C_219 C_1308 1_555 1_555
C_220 C_221 1_555 1_555
C_221 C_223 1_555 1_555
C_221 C_258 1_555 1_555
C_222 C_227 1_555 1_555
C_222 C_262 1_555 1_555
C_223 C_265 1_555 1_555
C_224 C_225 1_555 1_555
C_225 C_228 1_555 1_555
C_226 C_261 1_555 1_555
C_226 C_1312 1_555 1_555
C_227 C_228 1_555 1_555
C_228 C_229 1_555 1_555
C_230 C_234 1_555 1_555
C_230 C_268 1_555 1_555
C_231 C_1318 1_555 1_555
C_231 C_1324 1_555 1_555
C_232 C_1476 1_555 1_555
C_233 C_234 1_555 1_555
C_233 C_272 1_555 1_555
C_235 C_238 1_555 1_555
C_236 C_241 1_555 1_555
C_236 C_1594 1_555 1_555
C_236 C_1830 1_555 1_555
C_237 C_238 1_555 1_555
C_237 C_1594 1_555 1_555
C_238 C_240 1_555 1_555
C_239 C_278 1_555 1_555
C_239 C_1329 1_555 1_555
C_240 C_241 1_555 1_555
C_241 C_1709 1_555 1_555
C_242 C_243 1_555 1_555
C_243 C_244 1_555 1_555
C_245 C_248 1_555 1_555
C_246 C_247 1_555 1_555
C_246 C_1296 1_555 1_555
C_248 C_249 1_555 1_555
C_249 C_252 1_555 1_555
C_250 C_252 1_555 1_555
C_250 C_253 1_555 1_555
C_251 C_255 1_555 1_555
C_251 C_1370 1_555 1_555
C_253 C_256 1_555 1_555
C_256 C_257 1_555 1_555
C_257 C_1370 1_555 1_555
C_257 C_1490 1_555 1_555
C_258 C_259 1_555 1_555
C_260 C_261 1_555 1_555
C_260 C_1353 1_555 1_555
C_262 C_1307 1_555 1_555
C_262 C_1311 1_555 1_555
C_263 C_266 1_555 1_555
C_264 C_1362 1_555 1_555
C_265 C_1494 1_555 1_555
C_266 C_284 1_555 1_555
C_267 C_268 1_555 1_555
C_268 C_271 1_555 1_555
C_269 C_270 1_555 1_555
C_269 C_1322 1_555 1_555
C_269 C_1697 1_555 1_555
C_270 C_271 1_555 1_555
C_271 C_272 1_555 1_555
C_272 C_274 1_555 1_555
C_273 C_276 1_555 1_555
C_273 C_1322 1_555 1_555
C_273 C_1698 1_555 1_555
C_274 C_275 1_555 1_555
C_274 C_1322 1_555 1_555
C_275 C_276 1_555 1_555
C_275 C_277 1_555 1_555
C_276 C_1687 1_555 1_555
C_277 C_1594 1_555 1_555
C_278 C_1687 1_555 1_555
C_279 C_280 1_555 1_555
C_279 C_1379 1_555 1_555
C_281 C_340 1_555 1_555
C_281 C_1384 1_555 1_555
C_282 C_1414 1_555 1_555
C_283 C_1391 1_555 1_555
C_283 C_1823 1_555 1_555
C_284 C_1361 1_555 1_555
C_285 C_314 1_555 1_555
C_285 C_318 1_555 1_555
C_285 C_355 1_555 1_555
C_286 C_320 1_555 1_555
C_286 C_837 1_555 1_555
C_287 C_290 1_555 1_555
C_287 C_325 1_555 1_555
C_288 C_290 1_555 1_555
C_288 C_292 1_555 1_555
C_288 C_329 1_555 1_555
C_289 C_293 1_555 1_555
C_289 C_655 1_555 1_555
C_290 C_293 1_555 1_555
C_291 C_292 1_555 1_555
C_291 C_296 1_555 1_555
C_291 C_332 1_555 1_555
C_292 C_655 1_555 1_555
C_293 C_519 1_555 1_555
C_294 C_1676 1_555 1_555
C_294 C_1735 1_555 1_555
C_295 C_296 1_555 1_555
C_295 C_300 1_555 1_555
C_295 C_336 1_555 1_555
C_297 C_565 1_555 1_555
C_297 C_655 1_555 1_555
C_298 C_300 1_555 1_555
C_298 C_303 1_555 1_555
C_298 C_569 1_555 1_555
C_299 C_302 1_555 1_555
C_299 C_339 1_555 1_555
C_301 C_305 1_555 1_555
C_301 C_342 1_555 1_555
C_302 C_303 1_555 1_555
C_303 C_1683 1_555 1_555
C_304 C_305 1_555 1_555
C_304 C_308 1_555 1_555
C_304 C_345 1_555 1_555
C_305 C_306 1_555 1_555
C_306 C_536 1_555 1_555
C_307 C_309 1_555 1_555
C_307 C_534 1_555 1_555
C_308 C_309 1_555 1_555
C_308 C_1375 1_555 1_555
C_309 C_310 1_555 1_555
C_310 C_313 1_555 1_555
C_310 C_1743 1_555 1_555
C_311 C_353 1_555 1_555
C_311 C_1720 1_555 1_555
C_312 C_313 1_555 1_555
C_312 C_1375 1_555 1_555
C_312 C_1719 1_555 1_555
C_313 C_537 1_555 1_555
C_314 C_315 1_555 1_555
C_315 C_316 1_555 1_555
C_315 C_353 1_555 1_555
C_316 C_361 1_555 1_555
C_317 C_319 1_555 1_555
C_317 C_320 1_555 1_555
C_317 C_356 1_555 1_555
C_318 C_356 1_555 1_555
C_319 C_323 1_555 1_555
C_320 C_321 1_555 1_555
C_321 C_323 1_555 1_555
C_321 C_324 1_555 1_555
C_322 C_327 1_555 1_555
C_324 C_325 1_555 1_555
C_324 C_326 1_555 1_555
C_325 C_328 1_555 1_555
C_326 C_1401 1_555 1_555
C_327 C_328 1_555 1_555
C_328 C_329 1_555 1_555
C_329 C_331 1_555 1_555
C_330 C_334 1_555 1_555
C_330 C_371 1_555 1_555
C_330 C_604 1_555 1_555
C_331 C_332 1_555 1_555
C_332 C_335 1_555 1_555
C_333 C_334 1_555 1_555
C_333 C_338 1_555 1_555
C_333 C_375 1_555 1_555
C_334 C_335 1_555 1_555
C_335 C_336 1_555 1_555
C_337 C_338 1_555 1_555
C_337 C_379 1_555 1_555
C_338 C_610 1_555 1_555
C_339 C_342 1_555 1_555
C_339 C_1383 1_555 1_555
C_340 C_344 1_555 1_555
C_341 C_345 1_555 1_555
C_343 C_344 1_555 1_555
C_343 C_347 1_555 1_555
C_343 C_1423 1_555 1_555
C_345 C_348 1_555 1_555
C_346 C_347 1_555 1_555
C_346 C_351 1_555 1_555
C_346 C_390 1_555 1_555
C_347 C_348 1_555 1_555
C_348 C_349 1_555 1_555
C_349 C_352 1_555 1_555
C_349 C_1375 1_555 1_555
C_350 C_392 1_555 1_555
C_350 C_1722 1_555 1_555
C_351 C_352 1_555 1_555
C_351 C_1721 1_555 1_555
C_352 C_1724 1_555 1_555
C_353 C_1723 1_555 1_555
C_354 C_626 1_555 1_555
C_354 C_1504 1_555 1_555
C_354 C_1831 1_555 1_555
C_355 C_392 1_555 1_555
C_355 C_582 1_555 1_555
C_357 C_1388 1_555 1_555
C_357 C_1421 1_555 1_555
C_358 C_359 1_555 1_555
C_358 C_1382 1_555 1_555
C_359 C_364 1_555 1_555
C_360 C_632 1_555 1_555
C_360 C_1514 1_555 1_555
C_361 C_837 1_555 1_555
C_362 C_366 1_555 1_555
C_362 C_405 1_555 1_555
C_363 C_364 1_555 1_555
C_363 C_589 1_555 1_555
C_365 C_366 1_555 1_555
C_365 C_369 1_555 1_555
C_365 C_409 1_555 1_555
C_367 C_598 1_555 1_555
C_367 C_602 1_555 1_555
C_368 C_369 1_555 1_555
C_368 C_373 1_555 1_555
C_368 C_413 1_555 1_555
C_369 C_370 1_555 1_555
C_370 C_371 1_555 1_555
C_370 C_601 1_555 1_555
C_371 C_374 1_555 1_555
C_372 C_373 1_555 1_555
C_372 C_377 1_555 1_555
C_372 C_417 1_555 1_555
C_373 C_374 1_555 1_555
C_374 C_375 1_555 1_555
C_375 C_378 1_555 1_555
C_376 C_377 1_555 1_555
C_376 C_381 1_555 1_555
C_376 C_422 1_555 1_555
C_377 C_378 1_555 1_555
C_378 C_379 1_555 1_555
C_379 C_382 1_555 1_555
C_380 C_381 1_555 1_555
C_380 C_384 1_555 1_555
C_380 C_424 1_555 1_555
C_381 C_382 1_555 1_555
C_382 C_386 1_555 1_555
C_383 C_384 1_555 1_555
C_383 C_388 1_555 1_555
C_383 C_428 1_555 1_555
C_384 C_385 1_555 1_555
C_385 C_386 1_555 1_555
C_386 C_614 1_555 1_555
C_387 C_388 1_555 1_555
C_387 C_432 1_555 1_555
C_387 C_1538 1_555 1_555
C_388 C_389 1_555 1_555
C_389 C_390 1_555 1_555
C_389 C_1423 1_555 1_555
C_390 C_1422 1_555 1_555
C_391 C_392 1_555 1_555
C_391 C_626 1_555 1_555
C_391 C_1824 1_555 1_555
C_393 C_394 1_555 1_555
C_393 C_397 1_555 1_555
C_393 C_438 1_555 1_555
C_394 C_622 1_555 1_555
C_394 C_1728 1_555 1_555
C_395 C_398 1_555 1_555
C_395 C_622 1_555 1_555
C_396 C_397 1_555 1_555
C_396 C_401 1_555 1_555
C_396 C_440 1_555 1_555
C_397 C_398 1_555 1_555
C_398 C_399 1_555 1_555
C_399 C_402 1_555 1_555
C_400 C_401 1_555 1_555
C_400 C_407 1_555 1_555
C_400 C_443 1_555 1_555
C_401 C_402 1_555 1_555
C_403 C_623 1_555 1_555
C_403 C_685 1_555 1_555
C_404 C_405 1_555 1_555
C_404 C_623 1_555 1_555
C_404 C_633 1_555 1_555
C_406 C_411 1_555 1_555
C_406 C_451 1_555 1_555
C_407 C_633 1_555 1_555
C_407 C_1458 1_555 1_555
C_408 C_409 1_555 1_555
C_409 C_412 1_555 1_555
C_410 C_411 1_555 1_555
C_410 C_415 1_555 1_555
C_410 C_458 1_555 1_555
C_411 C_412 1_555 1_555
C_412 C_413 1_555 1_555
C_413 C_416 1_555 1_555
C_414 C_415 1_555 1_555
C_414 C_461 1_555 1_555
C_415 C_416 1_555 1_555
C_416 C_417 1_555 1_555
C_417 C_420 1_555 1_555
C_418 C_419 1_555 1_555
C_418 C_421 1_555 1_555
C_418 C_423 1_555 1_555
C_419 C_420 1_555 1_555
C_419 C_461 1_555 1_555
C_420 C_422 1_555 1_555
C_421 C_426 1_555 1_555
C_422 C_423 1_555 1_555
C_423 C_424 1_555 1_555
C_424 C_427 1_555 1_555
C_425 C_426 1_555 1_555
C_425 C_430 1_555 1_555
C_425 C_1454 1_555 1_555
C_426 C_427 1_555 1_555
C_427 C_428 1_555 1_555
C_428 C_431 1_555 1_555
C_429 C_430 1_555 1_555
C_429 C_434 1_555 1_555
C_429 C_472 1_555 1_555
C_430 C_431 1_555 1_555
C_431 C_432 1_555 1_555
C_432 C_435 1_555 1_555
C_433 C_434 1_555 1_555
C_433 C_475 1_555 1_555
C_433 C_1727 1_555 1_555
C_434 C_435 1_555 1_555
C_435 C_1508 1_555 1_555
C_436 C_442 1_555 1_555
C_436 C_480 1_555 1_555
C_437 C_438 1_555 1_555
C_437 C_440 1_555 1_555
C_437 C_1592 1_555 1_555
C_438 C_439 1_555 1_555
C_439 C_1733 1_555 1_555
C_440 C_1590 1_555 1_555
C_441 C_445 1_555 1_555
C_441 C_480 1_555 1_555
C_441 C_484 1_555 1_555
C_442 C_447 1_555 1_555
C_443 C_480 1_555 1_555
C_444 C_1545 1_555 1_555
C_444 C_1589 1_555 1_555
C_445 C_449 1_555 1_555
C_445 C_488 1_555 1_555
C_446 C_450 1_555 1_555
C_446 C_1458 1_555 1_555
C_447 C_1825 1_555 1_555
C_448 C_449 1_555 1_555
C_448 C_453 1_555 1_555
C_448 C_492 1_555 1_555
C_449 C_450 1_555 1_555
C_450 C_451 1_555 1_555
C_451 C_454 1_555 1_555
C_452 C_453 1_555 1_555
C_452 C_456 1_555 1_555
C_452 C_495 1_555 1_555
C_453 C_454 1_555 1_555
C_454 C_458 1_555 1_555
C_455 C_456 1_555 1_555
C_455 C_460 1_555 1_555
C_455 C_499 1_555 1_555
C_457 C_1468 1_555 1_555
C_457 C_1470 1_555 1_555
C_459 C_463 1_555 1_555
C_459 C_503 1_555 1_555
C_460 C_1473 1_555 1_555
C_461 C_1473 1_555 1_555
C_462 C_463 1_555 1_555
C_462 C_467 1_555 1_555
C_462 C_505 1_555 1_555
C_463 C_464 1_555 1_555
C_464 C_1477 1_555 1_555
C_464 C_1732 1_555 1_555
C_465 C_1442 1_555 1_555
C_465 C_1474 1_555 1_555
C_465 C_1731 1_555 1_555
C_466 C_467 1_555 1_555
C_466 C_470 1_555 1_555
C_466 C_508 1_555 1_555
C_467 C_468 1_555 1_555
C_468 C_1454 1_555 1_555
C_469 C_470 1_555 1_555
C_469 C_473 1_555 1_555
C_469 C_513 1_555 1_555
C_470 C_471 1_555 1_555
C_471 C_472 1_555 1_555
C_471 C_1454 1_555 1_555
C_472 C_474 1_555 1_555
C_473 C_474 1_555 1_555
C_474 C_475 1_555 1_555
C_475 C_1729 1_555 1_555
C_476 C_547 1_555 1_555
C_476 C_1835 1_555 1_555
C_477 C_514 1_555 1_555
C_477 C_547 1_555 1_555
C_478 C_479 1_555 1_555
C_478 C_482 1_555 1_555
C_481 C_482 1_555 1_555
C_481 C_486 1_555 1_555
C_481 C_515 1_555 1_555
C_482 C_483 1_555 1_555
C_483 C_484 1_555 1_555
C_484 C_487 1_555 1_555
C_485 C_486 1_555 1_555
C_485 C_490 1_555 1_555
C_485 C_524 1_555 1_555
C_486 C_487 1_555 1_555
C_487 C_488 1_555 1_555
C_488 C_491 1_555 1_555
C_489 C_490 1_555 1_555
C_489 C_535 1_555 1_555
C_490 C_491 1_555 1_555
C_491 C_492 1_555 1_555
C_493 C_497 1_555 1_555
C_493 C_530 1_555 1_555
C_494 C_1495 1_555 1_555
C_494 C_1497 1_555 1_555
C_495 C_498 1_555 1_555
C_496 C_497 1_555 1_555
C_496 C_501 1_555 1_555
C_497 C_498 1_555 1_555
C_498 C_499 1_555 1_555
C_499 C_502 1_555 1_555
C_500 C_533 1_555 1_555
C_500 C_1500 1_555 1_555
C_501 C_502 1_555 1_555
C_501 C_1500 1_555 1_555
C_502 C_503 1_555 1_555
C_504 C_569 1_555 1_555
C_504 C_1717 1_555 1_555
C_505 C_1475 1_555 1_555
C_506 C_507 1_555 1_555
C_506 C_510 1_555 1_555
C_507 C_1475 1_555 1_555
C_508 C_511 1_555 1_555
C_508 C_1475 1_555 1_555
C_509 C_510 1_555 1_555
C_509 C_512 1_555 1_555
C_510 C_511 1_555 1_555
C_511 C_513 1_555 1_555
C_512 C_1591 1_555 1_555
C_514 C_517 1_555 1_555
C_515 C_518 1_555 1_555
C_515 C_523 1_555 1_555
C_516 C_1480 1_555 1_555
C_517 C_838 1_555 1_555
C_518 C_838 1_555 1_555
C_519 C_1737 1_555 1_555
C_519 C_1837 1_555 1_555
C_520 C_521 1_555 1_555
C_520 C_522 1_555 1_555
C_522 C_526 1_555 1_555
C_522 C_1736 1_555 1_555
C_523 C_524 1_555 1_555
C_524 C_527 1_555 1_555
C_525 C_531 1_555 1_555
C_525 C_1675 1_555 1_555
C_526 C_527 1_555 1_555
C_527 C_528 1_555 1_555
C_528 C_529 1_555 1_555
C_529 C_530 1_555 1_555
C_531 C_532 1_555 1_555
C_532 C_535 1_555 1_555
C_533 C_1496 1_555 1_555
C_534 C_1742 1_555 1_555
C_536 C_1741 1_555 1_555
C_537 C_1376 1_555 1_555
C_537 C_1836 1_555 1_555
C_538 C_540 1_555 1_555
C_538 C_542 1_555 1_555
C_538 C_543 1_555 1_555
C_539 C_1684 1_555 1_555
C_539 C_1739 1_555 1_555
C_540 C_1738 1_555 1_555
C_541 C_543 1_555 1_555
C_541 C_1550 1_555 1_555
C_542 C_545 1_555 1_555
C_542 C_1718 1_555 1_555
C_543 C_544 1_555 1_555
C_544 C_546 1_555 1_555
C_544 C_1591 1_555 1_555
C_545 C_546 1_555 1_555
C_545 C_1812 1_555 1_555
C_546 C_1746 1_555 1_555
C_547 C_1745 1_555 1_555
C_548 C_585 1_555 1_555
C_549 C_550 1_555 1_555
C_549 C_581 1_555 1_555
C_549 C_844 1_555 1_555
C_550 C_579 1_555 1_555
C_550 C_637 1_555 1_555
C_551 C_553 1_555 1_555
C_551 C_1627 1_555 1_555
C_552 C_556 1_555 1_555
C_552 C_592 1_555 1_555
C_553 C_642 1_555 1_555
C_554 C_1627 1_555 1_555
C_554 C_1667 1_555 1_555
C_555 C_556 1_555 1_555
C_555 C_559 1_555 1_555
C_555 C_596 1_555 1_555
C_557 C_560 1_555 1_555
C_557 C_649 1_555 1_555
C_557 C_650 1_555 1_555
C_558 C_562 1_555 1_555
C_558 C_600 1_555 1_555
C_559 C_560 1_555 1_555
C_560 C_561 1_555 1_555
C_561 C_564 1_555 1_555
C_562 C_567 1_555 1_555
C_563 C_565 1_555 1_555
C_566 C_567 1_555 1_555
C_566 C_607 1_555 1_555
C_566 C_654 1_555 1_555
C_568 C_570 1_555 1_555
C_568 C_572 1_555 1_555
C_569 C_1838 1_555 1_555
C_570 C_573 1_555 1_555
C_570 C_658 1_555 1_555
C_571 C_577 1_555 1_555
C_571 C_662 1_555 1_555
C_572 C_611 1_555 1_555
C_572 C_656 1_555 1_555
C_573 C_574 1_555 1_555
C_574 C_661 1_555 1_555
C_575 C_576 1_555 1_555
C_575 C_580 1_555 1_555
C_576 C_577 1_555 1_555
C_578 C_580 1_555 1_555
C_578 C_581 1_555 1_555
C_579 C_580 1_555 1_555
C_583 C_584 1_555 1_555
C_583 C_620 1_555 1_555
C_584 C_585 1_555 1_555
C_585 C_587 1_555 1_555
C_586 C_587 1_555 1_555
C_586 C_627 1_555 1_555
C_587 C_588 1_555 1_555
C_589 C_590 1_555 1_555
C_589 C_594 1_555 1_555
C_590 C_591 1_555 1_555
C_591 C_592 1_555 1_555
C_592 C_595 1_555 1_555
C_593 C_629 1_555 1_555
C_593 C_846 1_555 1_555
C_594 C_595 1_555 1_555
C_595 C_596 1_555 1_555
C_596 C_599 1_555 1_555
C_597 C_630 1_555 1_555
C_597 C_689 1_555 1_555
C_598 C_599 1_555 1_555
C_599 C_600 1_555 1_555
C_600 C_603 1_555 1_555
C_602 C_603 1_555 1_555
C_603 C_604 1_555 1_555
C_605 C_609 1_555 1_555
C_605 C_1686 1_555 1_555
C_606 C_773 1_555 1_555
C_606 C_777 1_555 1_555
C_606 C_779 1_555 1_555
C_607 C_610 1_555 1_555
C_608 C_693 1_555 1_555
C_608 C_696 1_555 1_555
C_608 C_697 1_555 1_555
C_609 C_614 1_555 1_555
C_611 C_613 1_555 1_555
C_612 C_613 1_555 1_555
C_612 C_699 1_555 1_555
C_612 C_702 1_555 1_555
C_615 C_617 1_555 1_555
C_615 C_702 1_555 1_555
C_616 C_668 1_555 1_555
C_616 C_704 1_555 1_555
C_617 C_618 1_555 1_555
C_618 C_619 1_555 1_555
C_618 C_660 1_555 1_555
C_619 C_706 1_555 1_555
C_620 C_626 1_555 1_555
C_620 C_1506 1_555 1_555
C_621 C_664 1_555 1_555
C_621 C_708 1_555 1_555
C_621 C_746 1_555 1_555
C_622 C_1832 1_555 1_555
C_623 C_1518 1_555 1_555
C_624 C_625 1_555 1_555
C_624 C_669 1_555 1_555
C_624 C_712 1_555 1_555
C_625 C_710 1_555 1_555
C_625 C_713 1_555 1_555
C_627 C_628 1_555 1_555
C_628 C_631 1_555 1_555
C_628 C_632 1_555 1_555
C_629 C_1517 1_555 1_555
C_630 C_681 1_555 1_555
C_630 C_725 1_555 1_555
C_632 C_1510 1_555 1_555
C_634 C_639 1_555 1_555
C_634 C_672 1_555 1_555
C_635 C_665 1_555 1_555
C_635 C_667 1_555 1_555
C_636 C_637 1_555 1_555
C_636 C_1626 1_555 1_555
C_638 C_639 1_555 1_555
C_638 C_642 1_555 1_555
C_638 C_676 1_555 1_555
C_640 C_743 1_555 1_555
C_641 C_642 1_555 1_555
C_641 C_645 1_555 1_555
C_641 C_680 1_555 1_555
C_643 C_1626 1_555 1_555
C_644 C_645 1_555 1_555
C_644 C_648 1_555 1_555
C_644 C_684 1_555 1_555
C_646 C_653 1_555 1_555
C_647 C_648 1_555 1_555
C_647 C_652 1_555 1_555
C_647 C_687 1_555 1_555
C_648 C_649 1_555 1_555
C_651 C_652 1_555 1_555
C_651 C_657 1_555 1_555
C_651 C_690 1_555 1_555
C_652 C_653 1_555 1_555
C_653 C_659 1_555 1_555
C_654 C_695 1_555 1_555
C_656 C_698 1_555 1_555
C_657 C_659 1_555 1_555
C_658 C_701 1_555 1_555
C_660 C_661 1_555 1_555
C_660 C_705 1_555 1_555
C_662 C_666 1_555 1_555
C_663 C_665 1_555 1_555
C_663 C_666 1_555 1_555
C_664 C_706 1_555 1_555
C_665 C_705 1_555 1_555
C_667 C_1752 1_555 1_555
C_668 C_1058 1_555 1_555
C_669 C_670 1_555 1_555
C_669 C_674 1_555 1_555
C_670 C_671 1_555 1_555
C_670 C_1751 1_555 1_555
C_671 C_672 1_555 1_555
C_671 C_709 1_555 1_555
C_672 C_675 1_555 1_555
C_673 C_674 1_555 1_555
C_673 C_678 1_555 1_555
C_674 C_675 1_555 1_555
C_675 C_676 1_555 1_555
C_676 C_679 1_555 1_555
C_677 C_678 1_555 1_555
C_677 C_682 1_555 1_555
C_677 C_718 1_555 1_555
C_678 C_679 1_555 1_555
C_679 C_680 1_555 1_555
C_680 C_683 1_555 1_555
C_681 C_688 1_555 1_555
C_681 C_728 1_555 1_555
C_682 C_683 1_555 1_555
C_682 C_689 1_555 1_555
C_683 C_684 1_555 1_555
C_684 C_686 1_555 1_555
C_686 C_687 1_555 1_555
C_686 C_689 1_555 1_555
C_687 C_690 1_555 1_555
C_688 C_691 1_555 1_555
C_690 C_691 1_555 1_555
C_691 C_694 1_555 1_555
C_692 C_729 1_555 1_555
C_692 C_731 1_555 1_555
C_692 C_733 1_555 1_555
C_693 C_694 1_555 1_555
C_693 C_733 1_555 1_555
C_694 C_695 1_555 1_555
C_695 C_697 1_555 1_555
C_696 C_700 1_555 1_555
C_696 C_736 1_555 1_555
C_697 C_698 1_555 1_555
C_699 C_700 1_555 1_555
C_700 C_740 1_555 1_555
C_703 C_704 1_555 1_555
C_703 C_740 1_555 1_555
C_703 C_743 1_555 1_555
C_707 C_746 1_555 1_555
C_707 C_749 1_555 1_555
C_707 C_1750 1_555 1_555
C_708 C_745 1_555 1_555
C_709 C_1749 1_555 1_555
C_710 C_711 1_555 1_555
C_710 C_753 1_555 1_555
C_711 C_712 1_555 1_555
C_711 C_1755 1_555 1_555
C_712 C_1756 1_555 1_555
C_713 C_714 1_555 1_555
C_714 C_716 1_555 1_555
C_714 C_757 1_555 1_555
C_715 C_716 1_555 1_555
C_715 C_724 1_555 1_555
C_715 C_761 1_555 1_555
C_716 C_717 1_555 1_555
C_717 C_718 1_555 1_555
C_718 C_721 1_555 1_555
C_719 C_723 1_555 1_555
C_719 C_724 1_555 1_555
C_719 C_765 1_555 1_555
C_720 C_721 1_555 1_555
C_720 C_724 1_555 1_555
C_720 C_725 1_555 1_555
C_722 C_723 1_555 1_555
C_722 C_727 1_555 1_555
C_722 C_769 1_555 1_555
C_726 C_727 1_555 1_555
C_726 C_730 1_555 1_555
C_726 C_731 1_555 1_555
C_727 C_728 1_555 1_555
C_728 C_729 1_555 1_555
C_730 C_772 1_555 1_555
C_730 C_775 1_555 1_555
C_731 C_732 1_555 1_555
C_732 C_734 1_555 1_555
C_732 C_778 1_555 1_555
C_733 C_735 1_555 1_555
C_734 C_735 1_555 1_555
C_734 C_776 1_555 1_555
C_735 C_736 1_555 1_555
C_736 C_739 1_555 1_555
C_737 C_738 1_555 1_555
C_737 C_742 1_555 1_555
C_737 C_784 1_555 1_555
C_738 C_739 1_555 1_555
C_738 C_776 1_555 1_555
C_739 C_740 1_555 1_555
C_741 C_742 1_555 1_555
C_741 C_788 1_555 1_555
C_744 C_745 1_555 1_555
C_744 C_748 1_555 1_555
C_745 C_749 1_555 1_555
C_747 C_748 1_555 1_555
C_747 C_1753 1_555 1_555
C_747 C_1844 1_555 1_555
C_748 C_792 1_555 1_555
C_749 C_1754 1_555 1_555
C_750 C_751 1_555 1_555
C_750 C_755 1_555 1_555
C_750 C_799 1_555 1_555
C_751 C_752 1_555 1_555
C_751 C_834 1_555 1_555
C_752 C_753 1_555 1_555
C_752 C_1692 1_555 1_555
C_753 C_756 1_555 1_555
C_754 C_755 1_555 1_555
C_754 C_759 1_555 1_555
C_754 C_800 1_555 1_555
C_755 C_756 1_555 1_555
C_756 C_757 1_555 1_555
C_757 C_760 1_555 1_555
C_758 C_759 1_555 1_555
C_758 C_763 1_555 1_555
C_758 C_797 1_555 1_555
C_759 C_760 1_555 1_555
C_760 C_761 1_555 1_555
C_761 C_764 1_555 1_555
C_762 C_763 1_555 1_555
C_762 C_767 1_555 1_555
C_762 C_806 1_555 1_555
C_763 C_764 1_555 1_555
C_764 C_765 1_555 1_555
C_765 C_768 1_555 1_555
C_766 C_767 1_555 1_555
C_766 C_771 1_555 1_555
C_766 C_810 1_555 1_555
C_767 C_768 1_555 1_555
C_768 C_769 1_555 1_555
C_769 C_772 1_555 1_555
C_770 C_771 1_555 1_555
C_770 C_774 1_555 1_555
C_770 C_814 1_555 1_555
C_771 C_772 1_555 1_555
C_773 C_774 1_555 1_555
C_773 C_817 1_555 1_555
C_774 C_775 1_555 1_555
C_775 C_778 1_555 1_555
C_776 C_780 1_555 1_555
C_777 C_782 1_555 1_555
C_777 C_820 1_555 1_555
C_778 C_779 1_555 1_555
C_779 C_780 1_555 1_555
C_780 C_783 1_555 1_555
C_781 C_782 1_555 1_555
C_781 C_786 1_555 1_555
C_781 C_824 1_555 1_555
C_782 C_783 1_555 1_555
C_783 C_784 1_555 1_555
C_784 C_787 1_555 1_555
C_785 C_786 1_555 1_555
C_785 C_790 1_555 1_555
C_786 C_787 1_555 1_555
C_787 C_788 1_555 1_555
C_788 C_791 1_555 1_555
C_789 C_790 1_555 1_555
C_789 C_794 1_555 1_555
C_789 C_831 1_555 1_555
C_790 C_791 1_555 1_555
C_791 C_792 1_555 1_555
C_792 C_795 1_555 1_555
C_793 C_1058 1_555 1_555
C_793 C_1542 1_555 1_555
C_793 C_1543 1_555 1_555
C_794 C_795 1_555 1_555
C_794 C_1759 1_555 1_555
C_795 C_1844 1_555 1_555
C_796 C_990 1_555 1_555
C_797 C_802 1_555 1_555
C_797 C_805 1_555 1_555
C_798 C_799 1_555 1_555
C_798 C_800 1_555 1_555
C_799 C_835 1_555 1_555
C_800 C_802 1_555 1_555
C_801 C_802 1_555 1_555
C_801 C_839 1_555 1_555
C_803 C_804 1_555 1_555
C_803 C_808 1_555 1_555
C_803 C_840 1_555 1_555
C_804 C_805 1_555 1_555
C_804 C_839 1_555 1_555
C_805 C_806 1_555 1_555
C_806 C_809 1_555 1_555
C_807 C_808 1_555 1_555
C_807 C_812 1_555 1_555
C_807 C_847 1_555 1_555
C_808 C_809 1_555 1_555
C_809 C_810 1_555 1_555
C_810 C_813 1_555 1_555
C_811 C_812 1_555 1_555
C_811 C_816 1_555 1_555
C_811 C_849 1_555 1_555
C_812 C_813 1_555 1_555
C_813 C_814 1_555 1_555
C_814 C_816 1_555 1_555
C_815 C_818 1_555 1_555
C_815 C_853 1_555 1_555
C_816 C_817 1_555 1_555
C_817 C_819 1_555 1_555
C_818 C_819 1_555 1_555
C_819 C_820 1_555 1_555
C_821 C_828 1_555 1_555
C_822 C_851 1_555 1_555
C_822 C_854 1_555 1_555
C_823 C_827 1_555 1_555
C_823 C_1056 1_555 1_555
C_824 C_1053 1_555 1_555
C_825 C_826 1_555 1_555
C_826 C_1053 1_555 1_555
C_827 C_1059 1_555 1_555
C_828 C_829 1_555 1_555
C_829 C_830 1_555 1_555
C_830 C_1053 1_555 1_555
C_831 C_833 1_555 1_555
C_832 C_1054 1_555 1_555
C_832 C_1690 1_555 1_555
C_833 C_1690 1_555 1_555
C_834 C_1587 1_555 1_555
C_834 C_1757 1_555 1_555
C_835 C_836 1_555 1_555
C_835 C_1587 1_555 1_555
C_840 C_843 1_555 1_555
C_840 C_847 1_555 1_555
C_841 C_848 1_555 1_555
C_841 C_850 1_555 1_555
C_842 C_1028 1_555 1_555
C_842 C_1066 1_555 1_555
C_844 C_1626 1_555 1_555
C_845 C_857 1_555 1_555
C_845 C_1059 1_555 1_555
C_846 C_1514 1_555 1_555
C_848 C_851 1_555 1_555
C_849 C_852 1_555 1_555
C_850 C_854 1_555 1_555
C_850 C_855 1_555 1_555
C_852 C_853 1_555 1_555
C_855 C_856 1_555 1_555
C_856 C_857 1_555 1_555
C_858 C_859 1_555 1_555
C_858 C_860 1_555 1_555
C_858 C_863 1_555 1_555
C_859 C_1761 1_555 1_555
C_860 C_902 1_555 1_555
C_860 C_906 1_555 1_555
C_861 C_1082 1_555 1_555
C_861 C_1086 1_555 1_555
C_861 C_1087 1_555 1_555
C_862 C_863 1_555 1_555
C_862 C_867 1_555 1_555
C_862 C_906 1_555 1_555
C_864 C_865 1_555 1_555
C_864 C_1335 1_555 1_555
C_865 C_868 1_555 1_555
C_866 C_867 1_555 1_555
C_866 C_871 1_555 1_555
C_866 C_910 1_555 1_555
C_867 C_868 1_555 1_555
C_868 C_869 1_555 1_555
C_869 C_872 1_555 1_555
C_870 C_871 1_555 1_555
C_870 C_875 1_555 1_555
C_870 C_914 1_555 1_555
C_871 C_872 1_555 1_555
C_872 C_873 1_555 1_555
C_873 C_876 1_555 1_555
C_874 C_875 1_555 1_555
C_874 C_878 1_555 1_555
C_874 C_917 1_555 1_555
C_875 C_876 1_555 1_555
C_876 C_877 1_555 1_555
C_878 C_879 1_555 1_555
C_879 C_883 1_555 1_555
C_880 C_882 1_555 1_555
C_880 C_884 1_555 1_555
C_881 C_884 1_555 1_555
C_881 C_888 1_555 1_555
C_882 C_923 1_555 1_555
C_883 C_1078 1_555 1_555
C_884 C_929 1_555 1_555
C_885 C_889 1_555 1_555
C_885 C_892 1_555 1_555
C_886 C_920 1_555 1_555
C_886 C_923 1_555 1_555
C_887 C_888 1_555 1_555
C_887 C_891 1_555 1_555
C_887 C_930 1_555 1_555
C_890 C_891 1_555 1_555
C_890 C_895 1_555 1_555
C_890 C_934 1_555 1_555
C_891 C_892 1_555 1_555
C_892 C_893 1_555 1_555
C_893 C_896 1_555 1_555
C_894 C_895 1_555 1_555
C_894 C_899 1_555 1_555
C_894 C_936 1_555 1_555
C_895 C_896 1_555 1_555
C_897 C_900 1_555 1_555
C_897 C_1117 1_555 1_555
C_898 C_899 1_555 1_555
C_898 C_940 1_555 1_555
C_898 C_1760 1_555 1_555
C_899 C_900 1_555 1_555
C_900 C_1119 1_555 1_555
C_901 C_944 1_555 1_555
C_901 C_1764 1_555 1_555
C_902 C_903 1_555 1_555
C_902 C_905 1_555 1_555
C_903 C_1764 1_555 1_555
C_903 C_1765 1_555 1_555
C_904 C_905 1_555 1_555
C_904 C_947 1_555 1_555
C_907 C_908 1_555 1_555
C_907 C_912 1_555 1_555
C_907 C_950 1_555 1_555
C_908 C_909 1_555 1_555
C_909 C_910 1_555 1_555
C_910 C_913 1_555 1_555
C_911 C_912 1_555 1_555
C_911 C_955 1_555 1_555
C_911 C_959 1_555 1_555
C_912 C_913 1_555 1_555
C_913 C_914 1_555 1_555
C_914 C_916 1_555 1_555
C_915 C_919 1_555 1_555
C_915 C_926 1_555 1_555
C_915 C_960 1_555 1_555
C_916 C_917 1_555 1_555
C_916 C_959 1_555 1_555
C_917 C_920 1_555 1_555
C_918 C_919 1_555 1_555
C_918 C_920 1_555 1_555
C_918 C_926 1_555 1_555
C_919 C_959 1_555 1_555
C_921 C_1195 1_555 1_555
C_921 C_1198 1_555 1_555
C_921 C_1199 1_555 1_555
C_922 C_925 1_555 1_555
C_922 C_965 1_555 1_555
C_922 C_967 1_555 1_555
C_924 C_928 1_555 1_555
C_924 C_967 1_555 1_555
C_925 C_926 1_555 1_555
C_925 C_963 1_555 1_555
C_927 C_928 1_555 1_555
C_927 C_932 1_555 1_555
C_927 C_970 1_555 1_555
C_928 C_929 1_555 1_555
C_929 C_930 1_555 1_555
C_930 C_933 1_555 1_555
C_931 C_932 1_555 1_555
C_931 C_973 1_555 1_555
C_931 C_980 1_555 1_555
C_932 C_933 1_555 1_555
C_933 C_934 1_555 1_555
C_934 C_935 1_555 1_555
C_935 C_936 1_555 1_555
C_935 C_980 1_555 1_555
C_936 C_939 1_555 1_555
C_937 C_938 1_555 1_555
C_937 C_1762 1_555 1_555
C_937 C_1763 1_555 1_555
C_938 C_939 1_555 1_555
C_938 C_978 1_555 1_555
C_939 C_940 1_555 1_555
C_940 C_1763 1_555 1_555
C_941 C_942 1_555 1_555
C_941 C_945 1_555 1_555
C_941 C_979 1_555 1_555
C_942 C_983 1_555 1_555
C_942 C_986 1_555 1_555
C_943 C_979 1_555 1_555
C_943 C_1025 1_555 1_555
C_944 C_946 1_555 1_555
C_944 C_979 1_555 1_555
C_945 C_987 1_555 1_555
C_946 C_947 1_555 1_555
C_948 C_949 1_555 1_555
C_948 C_952 1_555 1_555
C_949 C_987 1_555 1_555
C_950 C_953 1_555 1_555
C_951 C_952 1_555 1_555
C_951 C_956 1_555 1_555
C_951 C_995 1_555 1_555
C_952 C_953 1_555 1_555
C_953 C_955 1_555 1_555
C_954 C_956 1_555 1_555
C_954 C_957 1_555 1_555
C_954 C_999 1_555 1_555
C_957 C_958 1_555 1_555
C_957 C_960 1_555 1_555
C_958 C_962 1_555 1_555
C_958 C_1003 1_555 1_555
C_960 C_963 1_555 1_555
C_961 C_962 1_555 1_555
C_961 C_965 1_555 1_555
C_961 C_1007 1_555 1_555
C_962 C_963 1_555 1_555
C_964 C_966 1_555 1_555
C_964 C_968 1_555 1_555
C_964 C_1011 1_555 1_555
C_965 C_966 1_555 1_555
C_966 C_969 1_555 1_555
C_967 C_969 1_555 1_555
C_968 C_1015 1_555 1_555
C_968 C_1052 1_555 1_555
C_969 C_970 1_555 1_555
C_970 C_972 1_555 1_555
C_971 C_975 1_555 1_555
C_971 C_977 1_555 1_555
C_971 C_1052 1_555 1_555
C_972 C_973 1_555 1_555
C_972 C_1052 1_555 1_555
C_973 C_977 1_555 1_555
C_974 C_1016 1_555 1_555
C_974 C_1019 1_555 1_555
C_974 C_1020 1_555 1_555
C_975 C_1019 1_555 1_555
C_976 C_977 1_555 1_555
C_976 C_1021 1_555 1_555
C_978 C_980 1_555 1_555
C_981 C_982 1_555 1_555
C_981 C_985 1_555 1_555
C_981 C_1027 1_555 1_555
C_982 C_983 1_555 1_555
C_982 C_1767 1_555 1_555
C_983 C_1025 1_555 1_555
C_984 C_985 1_555 1_555
C_984 C_989 1_555 1_555
C_984 C_1026 1_555 1_555
C_985 C_986 1_555 1_555
C_988 C_989 1_555 1_555
C_988 C_993 1_555 1_555
C_988 C_1032 1_555 1_555
C_990 C_991 1_555 1_555
C_991 C_994 1_555 1_555
C_992 C_993 1_555 1_555
C_992 C_997 1_555 1_555
C_992 C_1036 1_555 1_555
C_993 C_994 1_555 1_555
C_994 C_995 1_555 1_555
C_995 C_998 1_555 1_555
C_996 C_997 1_555 1_555
C_996 C_1001 1_555 1_555
C_996 C_1040 1_555 1_555
C_997 C_998 1_555 1_555
C_998 C_999 1_555 1_555
C_999 C_1002 1_555 1_555
C_1000 C_1001 1_555 1_555
C_1000 C_1005 1_555 1_555
C_1000 C_1044 1_555 1_555
C_1001 C_1002 1_555 1_555
C_1002 C_1003 1_555 1_555
C_1003 C_1006 1_555 1_555
C_1004 C_1005 1_555 1_555
C_1004 C_1009 1_555 1_555
C_1004 C_1047 1_555 1_555
C_1005 C_1006 1_555 1_555
C_1006 C_1007 1_555 1_555
C_1007 C_1010 1_555 1_555
C_1008 C_1009 1_555 1_555
C_1008 C_1013 1_555 1_555
C_1008 C_1051 1_555 1_555
C_1009 C_1010 1_555 1_555
C_1010 C_1011 1_555 1_555
C_1011 C_1014 1_555 1_555
C_1012 C_1013 1_555 1_555
C_1012 C_1017 1_555 1_555
C_1012 C_1056 1_555 1_555
C_1013 C_1014 1_555 1_555
C_1014 C_1015 1_555 1_555
C_1015 C_1018 1_555 1_555
C_1016 C_1017 1_555 1_555
C_1016 C_1057 1_555 1_555
C_1017 C_1018 1_555 1_555
C_1018 C_1019 1_555 1_555
C_1020 C_1023 1_555 1_555
C_1020 C_1060 1_555 1_555
C_1021 C_1024 1_555 1_555
C_1022 C_1023 1_555 1_555
C_1022 C_1064 1_555 1_555
C_1022 C_1766 1_555 1_555
C_1023 C_1024 1_555 1_555
C_1024 C_1769 1_555 1_555
C_1025 C_1768 1_555 1_555
C_1026 C_1028 1_555 1_555
C_1026 C_1031 1_555 1_555
C_1027 C_1031 1_555 1_555
C_1027 C_1065 1_555 1_555
C_1028 C_1032 1_555 1_555
C_1029 C_1054 1_555 1_555
C_1029 C_1061 1_555 1_555
C_1030 C_1031 1_555 1_555
C_1030 C_1070 1_555 1_555
C_1032 C_1035 1_555 1_555
C_1033 C_1034 1_555 1_555
C_1033 C_1038 1_555 1_555
C_1033 C_1074 1_555 1_555
C_1034 C_1035 1_555 1_555
C_1035 C_1036 1_555 1_555
C_1036 C_1039 1_555 1_555
C_1037 C_1038 1_555 1_555
C_1037 C_1042 1_555 1_555
C_1037 C_1076 1_555 1_555
C_1038 C_1039 1_555 1_555
C_1039 C_1040 1_555 1_555
C_1040 C_1043 1_555 1_555
C_1041 C_1042 1_555 1_555
C_1041 C_1045 1_555 1_555
C_1042 C_1043 1_555 1_555
C_1043 C_1044 1_555 1_555
C_1044 C_1046 1_555 1_555
C_1045 C_1046 1_555 1_555
C_1045 C_1079 1_555 1_555
C_1046 C_1047 1_555 1_555
C_1047 C_1050 1_555 1_555
C_1048 C_1049 1_555 1_555
C_1048 C_1077 1_555 1_555
C_1049 C_1050 1_555 1_555
C_1049 C_1079 1_555 1_555
C_1050 C_1051 1_555 1_555
C_1055 C_1272 1_555 1_555
C_1055 C_1274 1_555 1_555
C_1055 C_1275 1_555 1_555
C_1057 C_1060 1_555 1_555
C_1060 C_1061 1_555 1_555
C_1062 C_1479 1_555 1_555
C_1063 C_1246 1_555 1_555
C_1063 C_1247 1_555 1_555
C_1063 C_1248 1_555 1_555
C_1064 C_1771 1_555 1_555
C_1065 C_1067 1_555 1_555
C_1065 C_1068 1_555 1_555
C_1066 C_1070 1_555 1_555
C_1066 C_1071 1_555 1_555
C_1067 C_1069 1_555 1_555
C_1068 C_1770 1_555 1_555
C_1069 C_1070 1_555 1_555
C_1071 C_1073 1_555 1_555
C_1072 C_1135 1_555 1_555
C_1072 C_1137 1_555 1_555
C_1073 C_1074 1_555 1_555
C_1074 C_1075 1_555 1_555
C_1075 C_1076 1_555 1_555
C_1077 C_1081 1_555 1_555
C_1080 C_1350 1_555 1_555
C_1080 C_1351 1_555 1_555
C_1082 C_1083 1_555 1_555
C_1082 C_1129 1_555 1_555
C_1083 C_1084 1_555 1_555
C_1083 C_1774 1_555 1_555
C_1084 C_1085 1_555 1_555
C_1084 C_1125 1_555 1_555
C_1085 C_1087 1_555 1_555
C_1085 C_1333 1_555 1_555
C_1086 C_1090 1_555 1_555
C_1086 C_1132 1_555 1_555
C_1087 C_1088 1_555 1_555
C_1088 C_1091 1_555 1_555
C_1089 C_1090 1_555 1_555
C_1089 C_1094 1_555 1_555
C_1089 C_1134 1_555 1_555
C_1090 C_1091 1_555 1_555
C_1091 C_1092 1_555 1_555
C_1092 C_1095 1_555 1_555
C_1092 C_1338 1_555 1_555
C_1093 C_1094 1_555 1_555
C_1093 C_1098 1_555 1_555
C_1093 C_1139 1_555 1_555
C_1094 C_1095 1_555 1_555
C_1095 C_1096 1_555 1_555
C_1096 C_1099 1_555 1_555
C_1096 C_1342 1_555 1_555
C_1097 C_1098 1_555 1_555
C_1097 C_1102 1_555 1_555
C_1097 C_1142 1_555 1_555
C_1098 C_1099 1_555 1_555
C_1099 C_1100 1_555 1_555
C_1100 C_1103 1_555 1_555
C_1100 C_1349 1_555 1_555
C_1101 C_1102 1_555 1_555
C_1101 C_1106 1_555 1_555
C_1101 C_1146 1_555 1_555
C_1102 C_1103 1_555 1_555
C_1103 C_1104 1_555 1_555
C_1104 C_1107 1_555 1_555
C_1104 C_1348 1_555 1_555
C_1105 C_1106 1_555 1_555
C_1105 C_1109 1_555 1_555
C_1105 C_1150 1_555 1_555
C_1106 C_1107 1_555 1_555
C_1107 C_1108 1_555 1_555
C_1108 C_1110 1_555 1_555
C_1109 C_1110 1_555 1_555
C_1109 C_1112 1_555 1_555
C_1110 C_1111 1_555 1_555
C_1111 C_1114 1_555 1_555
C_1111 C_1354 1_555 1_555
C_1112 C_1113 1_555 1_555
C_1112 C_1154 1_555 1_555
C_1113 C_1114 1_555 1_555
C_1113 C_1116 1_555 1_555
C_1115 C_1373 1_555 1_555
C_1116 C_1157 1_555 1_555
C_1117 C_1363 1_555 1_555
C_1118 C_1119 1_555 1_555
C_1118 C_1165 1_555 1_555
C_1120 C_1326 1_555 1_555
C_1120 C_1806 1_555 1_555
C_1121 C_1124 1_555 1_555
C_1121 C_1360 1_555 1_555
C_1121 C_1363 1_555 1_555
C_1122 C_1123 1_555 1_555
C_1122 C_1169 1_555 1_555
C_1122 C_1772 1_555 1_555
C_1123 C_1124 1_555 1_555
C_1124 C_1776 1_555 1_555
C_1125 C_1366 1_555 1_555
C_1125 C_1775 1_555 1_555
C_1126 C_1127 1_555 1_555
C_1126 C_1130 1_555 1_555
C_1126 C_1171 1_555 1_555
C_1127 C_1128 1_555 1_555
C_1127 C_1779 1_555 1_555
C_1128 C_1129 1_555 1_555
C_1128 C_1780 1_555 1_555
C_1129 C_1131 1_555 1_555
C_1130 C_1131 1_555 1_555
C_1130 C_1179 1_555 1_555
C_1131 C_1132 1_555 1_555
C_1132 C_1135 1_555 1_555
C_1133 C_1175 1_555 1_555
C_1133 C_1179 1_555 1_555
C_1134 C_1137 1_555 1_555
C_1134 C_1139 1_555 1_555
C_1135 C_1179 1_555 1_555
C_1136 C_1144 1_555 1_555
C_1136 C_1181 1_555 1_555
C_1136 C_1183 1_555 1_555
C_1137 C_1140 1_555 1_555
C_1138 C_1180 1_555 1_555
C_1139 C_1141 1_555 1_555
C_1140 C_1141 1_555 1_555
C_1140 C_1183 1_555 1_555
C_1141 C_1142 1_555 1_555
C_1142 C_1145 1_555 1_555
C_1143 C_1144 1_555 1_555
C_1143 C_1148 1_555 1_555
C_1143 C_1186 1_555 1_555
C_1144 C_1145 1_555 1_555
C_1145 C_1146 1_555 1_555
C_1146 C_1149 1_555 1_555
C_1147 C_1148 1_555 1_555
C_1147 C_1152 1_555 1_555
C_1147 C_1189 1_555 1_555
C_1148 C_1149 1_555 1_555
C_1149 C_1150 1_555 1_555
C_1150 C_1153 1_555 1_555
C_1151 C_1152 1_555 1_555
C_1151 C_1155 1_555 1_555
C_1151 C_1193 1_555 1_555
C_1152 C_1153 1_555 1_555
C_1153 C_1154 1_555 1_555
C_1154 C_1156 1_555 1_555
C_1155 C_1156 1_555 1_555
C_1156 C_1157 1_555 1_555
C_1157 C_1160 1_555 1_555
C_1158 C_1159 1_555 1_555
C_1158 C_1163 1_555 1_555
C_1158 C_1200 1_555 1_555
C_1159 C_1160 1_555 1_555
C_1160 C_1161 1_555 1_555
C_1161 C_1164 1_555 1_555
C_1162 C_1163 1_555 1_555
C_1162 C_1167 1_555 1_555
C_1162 C_1204 1_555 1_555
C_1163 C_1164 1_555 1_555
C_1164 C_1165 1_555 1_555
C_1165 C_1168 1_555 1_555
C_1166 C_1167 1_555 1_555
C_1166 C_1207 1_555 1_555
C_1166 C_1777 1_555 1_555
C_1167 C_1168 1_555 1_555
C_1168 C_1169 1_555 1_555
C_1169 C_1778 1_555 1_555
C_1170 C_1173 1_555 1_555
C_1170 C_1210 1_555 1_555
C_1170 C_1212 1_555 1_555
C_1171 C_1174 1_555 1_555
C_1172 C_1173 1_555 1_555
C_1172 C_1177 1_555 1_555
C_1172 C_1213 1_555 1_555
C_1173 C_1174 1_555 1_555
C_1175 C_1177 1_555 1_555
C_1176 C_1216 1_555 1_555
C_1176 C_1217 1_555 1_555
C_1178 C_1216 1_555 1_555
C_1178 C_1220 1_555 1_555
C_1180 C_1181 1_555 1_555
C_1180 C_1182 1_555 1_555
C_1181 C_1186 1_555 1_555
C_1182 C_1183 1_555 1_555
C_1184 C_1188 1_555 1_555
C_1184 C_1229 1_555 1_555
C_1185 C_1186 1_555 1_555
C_1185 C_1188 1_555 1_555
C_1185 C_1189 1_555 1_555
C_1187 C_1188 1_555 1_555
C_1187 C_1191 1_555 1_555
C_1187 C_1232 1_555 1_555
C_1189 C_1192 1_555 1_555
C_1190 C_1194 1_555 1_555
C_1190 C_1199 1_555 1_555
C_1190 C_1234 1_555 1_555
C_1191 C_1192 1_555 1_555
C_1191 C_1194 1_555 1_555
C_1192 C_1193 1_555 1_555
C_1193 C_1195 1_555 1_555
C_1194 C_1195 1_555 1_555
C_1196 C_1230 1_555 1_555
C_1196 C_1233 1_555 1_555
C_1196 C_1272 1_555 1_555
C_1197 C_1198 1_555 1_555
C_1197 C_1202 1_555 1_555
C_1197 C_1242 1_555 1_555
C_1198 C_1200 1_555 1_555
C_1199 C_1238 1_555 1_555
C_1200 C_1203 1_555 1_555
C_1201 C_1202 1_555 1_555
C_1201 C_1205 1_555 1_555
C_1201 C_1245 1_555 1_555
C_1202 C_1203 1_555 1_555
C_1203 C_1204 1_555 1_555
C_1204 C_1206 1_555 1_555
C_1205 C_1206 1_555 1_555
C_1206 C_1207 1_555 1_555
C_1208 C_1209 1_555 1_555
C_1208 C_1252 1_555 1_555
C_1209 C_1210 1_555 1_555
C_1209 C_1782 1_555 1_555
C_1211 C_1254 1_555 1_555
C_1211 C_1257 1_555 1_555
C_1212 C_1213 1_555 1_555
C_1214 C_1215 1_555 1_555
C_1214 C_1219 1_555 1_555
C_1214 C_1258 1_555 1_555
C_1215 C_1217 1_555 1_555
C_1218 C_1219 1_555 1_555
C_1218 C_1223 1_555 1_555
C_1218 C_1261 1_555 1_555
C_1219 C_1220 1_555 1_555
C_1220 C_1221 1_555 1_555
C_1221 C_1224 1_555 1_555
C_1222 C_1223 1_555 1_555
C_1222 C_1227 1_555 1_555
C_1222 C_1265 1_555 1_555
C_1223 C_1224 1_555 1_555
C_1224 C_1225 1_555 1_555
C_1225 C_1228 1_555 1_555
C_1226 C_1227 1_555 1_555
C_1226 C_1230 1_555 1_555
C_1226 C_1271 1_555 1_555
C_1227 C_1228 1_555 1_555
C_1228 C_1229 1_555 1_555
C_1229 C_1231 1_555 1_555
C_1230 C_1231 1_555 1_555
C_1231 C_1232 1_555 1_555
C_1232 C_1233 1_555 1_555
C_1233 C_1234 1_555 1_555
C_1234 C_1237 1_555 1_555
C_1235 C_1236 1_555 1_555
C_1235 C_1240 1_555 1_555
C_1235 C_1279 1_555 1_555
C_1236 C_1237 1_555 1_555
C_1237 C_1238 1_555 1_555
C_1238 C_1241 1_555 1_555
C_1239 C_1243 1_555 1_555
C_1239 C_1244 1_555 1_555
C_1239 C_1248 1_555 1_555
C_1240 C_1241 1_555 1_555
C_1240 C_1243 1_555 1_555
C_1241 C_1242 1_555 1_555
C_1242 C_1244 1_555 1_555
C_1243 C_1282 1_555 1_555
C_1244 C_1245 1_555 1_555
C_1245 C_1247 1_555 1_555
C_1246 C_1289 1_555 1_555
C_1246 C_1781 1_555 1_555
C_1248 C_1288 1_555 1_555
C_1249 C_1250 1_555 1_555
C_1249 C_1253 1_555 1_555
C_1249 C_1293 1_555 1_555
C_1250 C_1251 1_555 1_555
C_1250 C_1785 1_555 1_555
C_1251 C_1252 1_555 1_555
C_1251 C_1786 1_555 1_555
C_1252 C_1254 1_555 1_555
C_1253 C_1254 1_555 1_555
C_1253 C_1298 1_555 1_555
C_1255 C_1257 1_555 1_555
C_1257 C_1258 1_555 1_555
C_1258 C_1260 1_555 1_555
C_1259 C_1263 1_555 1_555
C_1259 C_1302 1_555 1_555
C_1260 C_1261 1_555 1_555
C_1261 C_1264 1_555 1_555
C_1262 C_1263 1_555 1_555
C_1262 C_1267 1_555 1_555
C_1262 C_1306 1_555 1_555
C_1263 C_1264 1_555 1_555
C_1264 C_1265 1_555 1_555
C_1265 C_1268 1_555 1_555
C_1266 C_1267 1_555 1_555
C_1266 C_1270 1_555 1_555
C_1266 C_1310 1_555 1_555
C_1267 C_1268 1_555 1_555
C_1268 C_1271 1_555 1_555
C_1269 C_1270 1_555 1_555
C_1269 C_1274 1_555 1_555
C_1269 C_1313 1_555 1_555
C_1270 C_1275 1_555 1_555
C_1271 C_1275 1_555 1_555
C_1273 C_1274 1_555 1_555
C_1273 C_1277 1_555 1_555
C_1273 C_1317 1_555 1_555
C_1276 C_1277 1_555 1_555
C_1276 C_1281 1_555 1_555
C_1276 C_1321 1_555 1_555
C_1277 C_1278 1_555 1_555
C_1278 C_1279 1_555 1_555
C_1279 C_1282 1_555 1_555
C_1280 C_1284 1_555 1_555
C_1281 C_1282 1_555 1_555
C_1283 C_1284 1_555 1_555
C_1283 C_1286 1_555 1_555
C_1283 C_1328 1_555 1_555
C_1285 C_1323 1_555 1_555
C_1285 C_1324 1_555 1_555
C_1285 C_1364 1_555 1_555
C_1286 C_1287 1_555 1_555
C_1286 C_1288 1_555 1_555
C_1287 C_1332 1_555 1_555
C_1287 C_1783 1_555 1_555
C_1288 C_1289 1_555 1_555
C_1289 C_1784 1_555 1_555
C_1290 C_1295 1_555 1_555
C_1290 C_1334 1_555 1_555
C_1291 C_1292 1_555 1_555
C_1291 C_1790 1_555 1_555
C_1292 C_1293 1_555 1_555
C_1292 C_1791 1_555 1_555
C_1294 C_1297 1_555 1_555
C_1294 C_1334 1_555 1_555
C_1294 C_1793 1_555 1_555
C_1295 C_1296 1_555 1_555
C_1295 C_1297 1_555 1_555
C_1297 C_1337 1_555 1_555
C_1299 C_1300 1_555 1_555
C_1299 C_1304 1_555 1_555
C_1299 C_1344 1_555 1_555
C_1300 C_1301 1_555 1_555
C_1301 C_1302 1_555 1_555
C_1302 C_1305 1_555 1_555
C_1303 C_1304 1_555 1_555
C_1303 C_1308 1_555 1_555
C_1303 C_1347 1_555 1_555
C_1304 C_1305 1_555 1_555
C_1305 C_1306 1_555 1_555
C_1306 C_1309 1_555 1_555
C_1308 C_1309 1_555 1_555
C_1309 C_1310 1_555 1_555
C_1310 C_1312 1_555 1_555
C_1311 C_1315 1_555 1_555
C_1312 C_1313 1_555 1_555
C_1313 C_1316 1_555 1_555
C_1314 C_1315 1_555 1_555
C_1314 C_1319 1_555 1_555
C_1314 C_1359 1_555 1_555
C_1315 C_1316 1_555 1_555
C_1316 C_1317 1_555 1_555
C_1317 C_1320 1_555 1_555
C_1318 C_1319 1_555 1_555
C_1319 C_1320 1_555 1_555
C_1320 C_1321 1_555 1_555
C_1321 C_1364 1_555 1_555
C_1323 C_1327 1_555 1_555
C_1325 C_1326 1_555 1_555
C_1325 C_1330 1_555 1_555
C_1328 C_1331 1_555 1_555
C_1329 C_1330 1_555 1_555
C_1329 C_1787 1_555 1_555
C_1330 C_1331 1_555 1_555
C_1331 C_1332 1_555 1_555
C_1332 C_1788 1_555 1_555
C_1333 C_1336 1_555 1_555
C_1333 C_1369 1_555 1_555
C_1334 C_1810 1_555 1_555
C_1336 C_1689 1_555 1_555
C_1336 C_1789 1_555 1_555
C_1337 C_1340 1_555 1_555
C_1338 C_1339 1_555 1_555
C_1338 C_1688 1_555 1_555
C_1339 C_1342 1_555 1_555
C_1339 C_1796 1_555 1_555
C_1340 C_1341 1_555 1_555
C_1340 C_1841 1_555 1_555
C_1341 C_1343 1_555 1_555
C_1342 C_1345 1_555 1_555
C_1343 C_1344 1_555 1_555
C_1343 C_1794 1_555 1_555
C_1344 C_1346 1_555 1_555
C_1345 C_1349 1_555 1_555
C_1345 C_1798 1_555 1_555
C_1346 C_1347 1_555 1_555
C_1346 C_1797 1_555 1_555
C_1347 C_1350 1_555 1_555
C_1348 C_1352 1_555 1_555
C_1348 C_1801 1_555 1_555
C_1349 C_1352 1_555 1_555
C_1350 C_1802 1_555 1_555
C_1351 C_1353 1_555 1_555
C_1351 C_1799 1_555 1_555
C_1352 C_1800 1_555 1_555
C_1353 C_1356 1_555 1_555
C_1354 C_1355 1_555 1_555
C_1354 C_1358 1_555 1_555
C_1355 C_1804 1_555 1_555
C_1356 C_1803 1_555 1_555
C_1357 C_1361 1_555 1_555
C_1358 C_1807 1_555 1_555
C_1359 C_1362 1_555 1_555
C_1360 C_1367 1_555 1_555
C_1360 C_1773 1_555 1_555
C_1362 C_1805 1_555 1_555
C_1365 C_1368 1_555 1_555
C_1366 C_1369 1_555 1_555
C_1366 C_1809 1_555 1_555
C_1367 C_1368 1_555 1_555
C_1367 C_1808 1_555 1_555
C_1369 C_1792 1_555 1_555
C_1370 C_1489 1_555 1_555
C_1372 C_1696 1_555 1_555
C_1376 C_1744 1_555 1_555
C_1377 C_1398 1_555 1_555
C_1378 C_1382 1_555 1_555
C_1378 C_1699 1_555 1_555
C_1380 C_1409 1_555 1_555
C_1381 C_1695 1_555 1_555
C_1383 C_1384 1_555 1_555
C_1384 C_1386 1_555 1_555
C_1385 C_1386 1_555 1_555
C_1385 C_1418 1_555 1_555
C_1387 C_1411 1_555 1_555
C_1387 C_1700 1_555 1_555
C_1388 C_1417 1_555 1_555
C_1393 C_1395 1_555 1_555
C_1393 C_1430 1_555 1_555
C_1394 C_1402 1_555 1_555
C_1395 C_1427 1_555 1_555
C_1396 C_1693 1_555 1_555
C_1397 C_1399 1_555 1_555
C_1400 C_1425 1_555 1_555
C_1402 C_1405 1_555 1_555
C_1403 C_1404 1_555 1_555
C_1403 C_1408 1_555 1_555
C_1403 C_1437 1_555 1_555
C_1404 C_1405 1_555 1_555
C_1405 C_1406 1_555 1_555
C_1406 C_1409 1_555 1_555
C_1407 C_1408 1_555 1_555
C_1407 C_1411 1_555 1_555
C_1407 C_1441 1_555 1_555
C_1408 C_1409 1_555 1_555
C_1410 C_1411 1_555 1_555
C_1410 C_1446 1_555 1_555
C_1410 C_1819 1_555 1_555
C_1412 C_1448 1_555 1_555
C_1412 C_1819 1_555 1_555
C_1412 C_1821 1_555 1_555
C_1413 C_1418 1_555 1_555
C_1413 C_1817 1_555 1_555
C_1413 C_1818 1_555 1_555
C_1415 C_1416 1_555 1_555
C_1415 C_1420 1_555 1_555
C_1415 C_1828 1_555 1_555
C_1416 C_1417 1_555 1_555
C_1416 C_1818 1_555 1_555
C_1417 C_1418 1_555 1_555
C_1419 C_1420 1_555 1_555
C_1419 C_1701 1_555 1_555
C_1419 C_1829 1_555 1_555
C_1420 C_1421 1_555 1_555
C_1421 C_1716 1_555 1_555
C_1422 C_1538 1_555 1_555
C_1422 C_1726 1_555 1_555
C_1424 C_1453 1_555 1_555
C_1426 C_1427 1_555 1_555
C_1426 C_1730 1_555 1_555
C_1430 C_1433 1_555 1_555
C_1431 C_1435 1_555 1_555
C_1431 C_1465 1_555 1_555
C_1433 C_1436 1_555 1_555
C_1434 C_1469 1_555 1_555
C_1435 C_1436 1_555 1_555
C_1436 C_1437 1_555 1_555
C_1437 C_1440 1_555 1_555
C_1438 C_1439 1_555 1_555
C_1438 C_1443 1_555 1_555
C_1438 C_1471 1_555 1_555
C_1439 C_1440 1_555 1_555
C_1440 C_1441 1_555 1_555
C_1441 C_1444 1_555 1_555
C_1442 C_1443 1_555 1_555
C_1443 C_1444 1_555 1_555
C_1444 C_1446 1_555 1_555
C_1445 C_1477 1_555 1_555
C_1445 C_1827 1_555 1_555
C_1446 C_1447 1_555 1_555
C_1447 C_1448 1_555 1_555
C_1448 C_1450 1_555 1_555
C_1449 C_1450 1_555 1_555
C_1449 C_1826 1_555 1_555
C_1450 C_1451 1_555 1_555
C_1451 C_1452 1_555 1_555
C_1451 C_1820 1_555 1_555
C_1452 C_1453 1_555 1_555
C_1452 C_1822 1_555 1_555
C_1455 C_1456 1_555 1_555
C_1455 C_1484 1_555 1_555
C_1456 C_1457 1_555 1_555
C_1457 C_1460 1_555 1_555
C_1459 C_1463 1_555 1_555
C_1459 C_1488 1_555 1_555
C_1460 C_1461 1_555 1_555
C_1461 C_1464 1_555 1_555
C_1462 C_1463 1_555 1_555
C_1462 C_1467 1_555 1_555
C_1462 C_1492 1_555 1_555
C_1463 C_1464 1_555 1_555
C_1464 C_1465 1_555 1_555
C_1465 C_1468 1_555 1_555
C_1466 C_1467 1_555 1_555
C_1466 C_1495 1_555 1_555
C_1467 C_1468 1_555 1_555
C_1469 C_1478 1_555 1_555
C_1469 C_1499 1_555 1_555
C_1471 C_1474 1_555 1_555
C_1472 C_1476 1_555 1_555
C_1472 C_1478 1_555 1_555
C_1472 C_1502 1_555 1_555
C_1478 C_1503 1_555 1_555
C_1479 C_1712 1_555 1_555
C_1480 C_1483 1_555 1_555
C_1481 C_1482 1_555 1_555
C_1481 C_1486 1_555 1_555
C_1482 C_1483 1_555 1_555
C_1484 C_1487 1_555 1_555
C_1485 C_1486 1_555 1_555
C_1485 C_1489 1_555 1_555
C_1485 C_1490 1_555 1_555
C_1486 C_1487 1_555 1_555
C_1487 C_1488 1_555 1_555
C_1488 C_1491 1_555 1_555
C_1490 C_1491 1_555 1_555
C_1491 C_1492 1_555 1_555
C_1492 C_1497 1_555 1_555
C_1493 C_1498 1_555 1_555
C_1495 C_1498 1_555 1_555
C_1496 C_1501 1_555 1_555
C_1498 C_1499 1_555 1_555
C_1499 C_1502 1_555 1_555
C_1504 C_1505 1_555 1_555
C_1504 C_1506 1_555 1_555
C_1505 C_1509 1_555 1_555
C_1506 C_1511 1_555 1_555
C_1507 C_1508 1_555 1_555
C_1507 C_1538 1_555 1_555
C_1507 C_1725 1_555 1_555
C_1508 C_1748 1_555 1_555
C_1509 C_1512 1_555 1_555
C_1509 C_1547 1_555 1_555
C_1510 C_1511 1_555 1_555
C_1511 C_1512 1_555 1_555
C_1512 C_1513 1_555 1_555
C_1513 C_1515 1_555 1_555
C_1513 C_1551 1_555 1_555
C_1514 C_1518 1_555 1_555
C_1515 C_1516 1_555 1_555
C_1516 C_1519 1_555 1_555
C_1516 C_1554 1_555 1_555
C_1517 C_1521 1_555 1_555
C_1519 C_1520 1_555 1_555
C_1520 C_1522 1_555 1_555
C_1520 C_1555 1_555 1_555
C_1521 C_1524 1_555 1_555
C_1522 C_1523 1_555 1_555
C_1523 C_1559 1_555 1_555
C_1524 C_1685 1_555 1_555
C_1525 C_1528 1_555 1_555
C_1525 C_1563 1_555 1_555
C_1526 C_1527 1_555 1_555
C_1526 C_1531 1_555 1_555
C_1527 C_1528 1_555 1_555
C_1528 C_1529 1_555 1_555
C_1529 C_1532 1_555 1_555
C_1529 C_1567 1_555 1_555
C_1530 C_1531 1_555 1_555
C_1530 C_1535 1_555 1_555
C_1530 C_1686 1_555 1_555
C_1531 C_1532 1_555 1_555
C_1532 C_1533 1_555 1_555
C_1533 C_1536 1_555 1_555
C_1533 C_1571 1_555 1_555
C_1534 C_1535 1_555 1_555
C_1535 C_1536 1_555 1_555
C_1536 C_1537 1_555 1_555
C_1537 C_1539 1_555 1_555
C_1537 C_1575 1_555 1_555
C_1539 C_1540 1_555 1_555
C_1540 C_1542 1_555 1_555
C_1541 C_1543 1_555 1_555
C_1541 C_1579 1_555 1_555
C_1543 C_1544 1_555 1_555
C_1544 C_1583 1_555 1_555
C_1545 C_1549 1_555 1_555
C_1545 C_1552 1_555 1_555
C_1546 C_1585 1_555 1_555
C_1546 C_1619 1_555 1_555
C_1547 C_1548 1_555 1_555
C_1547 C_1552 1_555 1_555
C_1548 C_1691 1_555 1_555
C_1549 C_1592 1_555 1_555
C_1550 C_1588 1_555 1_555
C_1551 C_1552 1_555 1_555
C_1551 C_1553 1_555 1_555
C_1553 C_1554 1_555 1_555
C_1553 C_1589 1_555 1_555
C_1554 C_1556 1_555 1_555
C_1555 C_1556 1_555 1_555
C_1555 C_1560 1_555 1_555
C_1556 C_1557 1_555 1_555
C_1557 C_1558 1_555 1_555
C_1557 C_1593 1_555 1_555
C_1558 C_1561 1_555 1_555
C_1558 C_1597 1_555 1_555
C_1559 C_1560 1_555 1_555
C_1559 C_1564 1_555 1_555
C_1560 C_1561 1_555 1_555
C_1561 C_1562 1_555 1_555
C_1562 C_1565 1_555 1_555
C_1562 C_1601 1_555 1_555
C_1563 C_1564 1_555 1_555
C_1563 C_1568 1_555 1_555
C_1564 C_1565 1_555 1_555
C_1565 C_1566 1_555 1_555
C_1566 C_1569 1_555 1_555
C_1566 C_1605 1_555 1_555
C_1567 C_1568 1_555 1_555
C_1567 C_1572 1_555 1_555
C_1568 C_1569 1_555 1_555
C_1569 C_1570 1_555 1_555
C_1570 C_1573 1_555 1_555
C_1571 C_1572 1_555 1_555
C_1571 C_1576 1_555 1_555
C_1572 C_1573 1_555 1_555
C_1573 C_1574 1_555 1_555
C_1574 C_1577 1_555 1_555
C_1574 C_1609 1_555 1_555
C_1575 C_1576 1_555 1_555
C_1575 C_1580 1_555 1_555
C_1576 C_1577 1_555 1_555
C_1577 C_1578 1_555 1_555
C_1578 C_1581 1_555 1_555
C_1578 C_1611 1_555 1_555
C_1579 C_1580 1_555 1_555
C_1579 C_1584 1_555 1_555
C_1580 C_1581 1_555 1_555
C_1581 C_1582 1_555 1_555
C_1582 C_1585 1_555 1_555
C_1582 C_1615 1_555 1_555
C_1583 C_1584 1_555 1_555
C_1583 C_1586 1_555 1_555
C_1584 C_1585 1_555 1_555
C_1586 C_1843 1_555 1_555
C_1587 C_1842 1_555 1_555
C_1588 C_1666 1_555 1_555
C_1589 C_1593 1_555 1_555
C_1590 C_1592 1_555 1_555
C_1591 C_1734 1_555 1_555
C_1593 C_1595 1_555 1_555
C_1595 C_1598 1_555 1_555
C_1596 C_1599 1_555 1_555
C_1596 C_1632 1_555 1_555
C_1597 C_1598 1_555 1_555
C_1597 C_1602 1_555 1_555
C_1598 C_1599 1_555 1_555
C_1599 C_1600 1_555 1_555
C_1600 C_1603 1_555 1_555
C_1600 C_1636 1_555 1_555
C_1601 C_1602 1_555 1_555
C_1601 C_1606 1_555 1_555
C_1602 C_1603 1_555 1_555
C_1603 C_1604 1_555 1_555
C_1604 C_1607 1_555 1_555
C_1604 C_1640 1_555 1_555
C_1605 C_1606 1_555 1_555
C_1606 C_1607 1_555 1_555
C_1608 C_1648 1_555 1_555
C_1609 C_1612 1_555 1_555
C_1610 C_1613 1_555 1_555
C_1610 C_1652 1_555 1_555
C_1611 C_1612 1_555 1_555
C_1611 C_1616 1_555 1_555
C_1612 C_1613 1_555 1_555
C_1613 C_1614 1_555 1_555
C_1614 C_1617 1_555 1_555
C_1614 C_1656 1_555 1_555
C_1615 C_1616 1_555 1_555
C_1615 C_1620 1_555 1_555
C_1616 C_1617 1_555 1_555
C_1617 C_1618 1_555 1_555
C_1618 C_1621 1_555 1_555
C_1618 C_1660 1_555 1_555
C_1619 C_1620 1_555 1_555
C_1619 C_1623 1_555 1_555
C_1620 C_1621 1_555 1_555
C_1621 C_1622 1_555 1_555
C_1622 C_1623 1_555 1_555
C_1622 C_1664 1_555 1_555
C_1624 C_1628 1_555 1_555
C_1624 C_1630 1_555 1_555
C_1624 C_1631 1_555 1_555
C_1625 C_1740 1_555 1_555
C_1627 C_1673 1_555 1_555
C_1628 C_1629 1_555 1_555
C_1628 C_1633 1_555 1_555
C_1631 C_1634 1_555 1_555
C_1631 C_1668 1_555 1_555
C_1632 C_1633 1_555 1_555
C_1632 C_1637 1_555 1_555
C_1633 C_1634 1_555 1_555
C_1634 C_1635 1_555 1_555
C_1635 C_1638 1_555 1_555
C_1635 C_1670 1_555 1_555
C_1636 C_1637 1_555 1_555
C_1636 C_1641 1_555 1_555
C_1637 C_1638 1_555 1_555
C_1638 C_1639 1_555 1_555
C_1639 C_1642 1_555 1_555
C_1639 C_1672 1_555 1_555
C_1640 C_1641 1_555 1_555
C_1640 C_1645 1_555 1_555
C_1641 C_1642 1_555 1_555
C_1643 C_1672 1_555 1_555
C_1643 C_1674 1_555 1_555
C_1644 C_1645 1_555 1_555
C_1644 C_1649 1_555 1_555
C_1646 C_1647 1_555 1_555
C_1646 C_1678 1_555 1_555
C_1647 C_1650 1_555 1_555
C_1648 C_1649 1_555 1_555
C_1648 C_1653 1_555 1_555
C_1649 C_1650 1_555 1_555
C_1650 C_1651 1_555 1_555
C_1651 C_1654 1_555 1_555
C_1651 C_1677 1_555 1_555
C_1652 C_1653 1_555 1_555
C_1652 C_1657 1_555 1_555
C_1653 C_1654 1_555 1_555
C_1654 C_1655 1_555 1_555
C_1655 C_1658 1_555 1_555
C_1655 C_1679 1_555 1_555
C_1656 C_1657 1_555 1_555
C_1656 C_1661 1_555 1_555
C_1657 C_1658 1_555 1_555
C_1658 C_1659 1_555 1_555
C_1659 C_1662 1_555 1_555
C_1660 C_1661 1_555 1_555
C_1660 C_1665 1_555 1_555
C_1661 C_1662 1_555 1_555
C_1662 C_1663 1_555 1_555
C_1663 C_1666 1_555 1_555
C_1663 C_1681 1_555 1_555
C_1664 C_1665 1_555 1_555
C_1667 C_1669 1_555 1_555
C_1668 C_1671 1_555 1_555
C_1669 C_1673 1_555 1_555
C_1670 C_1671 1_555 1_555
C_1670 C_1672 1_555 1_555
C_1674 C_1736 1_555 1_555
C_1675 C_1678 1_555 1_555
C_1676 C_1678 1_555 1_555
C_1677 C_1680 1_555 1_555
C_1679 C_1680 1_555 1_555
C_1679 C_1682 1_555 1_555
C_1681 C_1684 1_555 1_555
C_1682 C_1747 1_555 1_555
C_1682 C_1839 1_555 1_555
C_1683 C_1838 1_555 1_555
C_1683 C_1840 1_555 1_555
C_1684 C_1839 1_555 1_555
C_1688 C_1689 1_555 1_555
C_1688 C_1795 1_555 1_555
C_1690 C_1834 1_555 1_555
C_1691 C_1833 1_555 1_555
C_1692 C_1755 1_555 1_555
C_1692 C_1758 1_555 1_555
C_1703 C_1707 1_555 1_555
C_1704 C_1707 1_555 1_555
C_1705 C_1711 1_555 1_555
C_1712 C_1713 1_555 1_555
C_1719 C_1724 1_555 1_555
C_1722 C_1723 1_555 1_555
C_1727 C_1748 1_555 1_555
C_1728 C_1733 1_555 1_555
C_1734 C_1746 1_555 1_555
C_1735 C_1747 1_555 1_555
C_1741 C_1840 1_555 1_555
C_1743 C_1744 1_555 1_555
C_1751 C_1756 1_555 1_555
C_1753 C_1754 1_555 1_555
C_1757 C_1758 1_555 1_555
C_1759 C_1834 1_555 1_555
C_1761 C_1765 1_555 1_555
C_1767 C_1770 1_555 1_555
C_1774 C_1780 1_555 1_555
C_1776 C_1808 1_555 1_555
C_1777 C_1778 1_555 1_555
C_1782 C_1786 1_555 1_555
C_1783 C_1784 1_555 1_555
C_1785 C_1791 1_555 1_555
C_1787 C_1788 1_555 1_555
C_1789 C_1792 1_555 1_555
C_1799 C_1802 1_555 1_555
C_1820 C_1821 1_555 1_555
C_1828 C_1829 1_555 1_555
C_1831 C_1832 1_555 1_555
C_1845 C_1848 1_555 1_555
C_1846 C_1847 1_555 1_555
C_1847 C_1848 1_555 1_555
C_1849 C_1850 1_555 1_555
C_1852 C_1853 1_555 1_555
C_1854 C_1855 1_555 1_555
C_1855 C_1856 1_555 1_555
C_1857 C_1862 1_555 1_555
C_1857 C_1865 1_555 1_555
C_1858 C_1859 1_555 1_555
C_1859 C_1861 1_555 1_555
C_1860 C_1861 1_555 1_555
C_1860 C_1863 1_555 1_555
C_1862 C_1863 1_555 1_555
C_1862 C_1864 1_555 1_555
C_1864 C_1865 1_555 1_555

#END
